                                  MODFLOW-NWT-SWR1 
      U.S. GEOLOGICAL SURVEY MODULAR FINITE-DIFFERENCE GROUNDWATER-FLOW MODEL
                            VERSION 1.0.9 07/01/2014
                    BASED ON MODFLOW-2005 VERSION 1.11.00 08/30/2013

 LIST FILE: freyberg.list
                         UNIT    2

 OPENING freyberg.dis
 FILE TYPE:DIS   UNIT   11   STATUS:OLD    
 FORMAT:FORMATTED              ACCESS:SEQUENTIAL          

 OPENING freyberg.upw
 FILE TYPE:LPF   UNIT   31   STATUS:OLD    
 FORMAT:FORMATTED              ACCESS:SEQUENTIAL          

 OPENING freyberg.bas
 FILE TYPE:BAS6   UNIT   13   STATUS:OLD    
 FORMAT:FORMATTED              ACCESS:SEQUENTIAL          

 OPENING freyberg.rch
 FILE TYPE:RCH   UNIT   19   STATUS:OLD    
 FORMAT:FORMATTED              ACCESS:SEQUENTIAL          

 OPENING freyberg.wel
 FILE TYPE:WEL   UNIT   20   STATUS:OLD    
 FORMAT:FORMATTED              ACCESS:SEQUENTIAL          

 OPENING freyberg.riv
 FILE TYPE:RIV   UNIT   18   STATUS:OLD    
 FORMAT:FORMATTED              ACCESS:SEQUENTIAL          

 OPENING freyberg.oc
 FILE TYPE:OC   UNIT   14   STATUS:OLD    
 FORMAT:FORMATTED              ACCESS:SEQUENTIAL          

 OPENING freyberg.hds
 FILE TYPE:DATA   UNIT   51   STATUS:REPLACE
 FORMAT:FORMATTED              ACCESS:SEQUENTIAL          

 OPENING freyberg.ddn
 FILE TYPE:DATA(BINARY)   UNIT   52   STATUS:REPLACE
 FORMAT:UNFORMATTED            ACCESS:STREAM              

 OPENING freyberg.cbc
 FILE TYPE:DATA(BINARY)   UNIT   53   STATUS:REPLACE
 FORMAT:UNFORMATTED            ACCESS:STREAM              

 OPENING freyberg.pcg
 FILE TYPE:PCG   UNIT   32   STATUS:OLD    
 FORMAT:FORMATTED              ACCESS:SEQUENTIAL          

 BAS -- BASIC PACKAGE, VERSION 7, 5/2/2005 INPUT READ FROM UNIT   13

 MODFLOW was compiled using mixed precision
 Precision of REAL variables:           6
 Precision of DOUBLE PRECISION variables:          15

 DISCRETIZATION INPUT DATA READ FROM UNIT   11
 # Discretization file for MODFLOW, generated by Flopy.
    1 LAYERS        40 ROWS        20 COLUMNS
    3 STRESS PERIOD(S) IN SIMULATION
 MODEL TIME UNIT IS DAYS
 MODEL LENGTH UNIT IS METERS
  Confining bed flag for each layer:
   0



                               DELR
 READING ON UNIT   11 WITH FORMAT: (20G15.6)           



                               DELC
 READING ON UNIT   11 WITH FORMAT: (40G15.6)           

 TOP ELEVATION OF LAYER 1 =   35.0000    

 OPENING FILE ON UNIT   99:
 botm.ref                                                                                                                                                                                                



             MODEL LAYER BOTTOM EL. FOR LAYER   1
 READING ON UNIT   99 WITH FORMAT: (10E12.4)           


 STRESS PERIOD     LENGTH       TIME STEPS     MULTIPLIER FOR DELT    SS FLAG
 ----------------------------------------------------------------------------
        1         1.000000          1                    1.000         SS
        2         1825.000          1                    1.000         TR
        3         1.000000          1                    1.000         SS

 COMBINED STEADY-STATE AND TRANSIENT SIMULATION




 # Basic package file for MODFLOW, generated by Flopy.                           
 THE FREE FORMAT OPTION HAS BEEN SELECTED

 OPENING FILE ON UNIT   99:
 ibound.ref                                                                                                                                                                                              



                     BOUNDARY ARRAY FOR LAYER   1
 READING ON UNIT   99 WITH FORMAT: (25I3)              

 AQUIFER HEAD WILL BE SET TO  -999.99     AT ALL NO-FLOW NODES (IBOUND=0).

 OPENING FILE ON UNIT   99:
 strt.ref                                                                                                                                                                                                



                       INITIAL HEAD FOR LAYER   1
 READING ON UNIT   99 WITH FORMAT: (10E12.4)           
 # Output control package file for MODFLOW, generated by Flopy.

 OUTPUT CONTROL IS SPECIFIED ONLY AT TIME STEPS FOR WHICH OUTPUT IS DESIRED
 HEADS WILL BE SAVED WITH FORMAT: (20E15.6)           
 COMPACT CELL-BY-CELL BUDGET FILES WILL BE WRITTEN
 AUXILIARY DATA WILL BE SAVED IN CELL-BY-CELL BUDGET FILES
 HEAD PRINT FORMAT CODE IS   0    DRAWDOWN PRINT FORMAT CODE IS   0
 HEADS WILL BE SAVED ON UNIT   51    DRAWDOWNS WILL BE SAVED ON UNIT   52

 LPF -- LAYER-PROPERTY FLOW PACKAGE, VERSION 7, 5/2/2005
         INPUT READ FROM UNIT   31
 # UPW for MODFLOW-NWT, generated by Flopy.
 CELL-BY-CELL FLOWS WILL BE SAVED ON UNIT   53
 HEAD AT CELLS THAT CONVERT TO DRY= -1.00000E+30
 No named parameters

   LAYER FLAGS:
 LAYER       LAYTYP        LAYAVG         CHANI        LAYVKA        LAYWET
 ---------------------------------------------------------------------------
    1             1             0     1.000E+00             0             0

   INTERPRETATION OF LAYER FLAGS:
                        INTERBLOCK     HORIZONTAL    DATA IN
         LAYER TYPE   TRANSMISSIVITY   ANISOTROPY   ARRAY VKA   WETTABILITY
 LAYER      (LAYTYP)      (LAYAVG)       (CHANI)      (LAYVKA)      (LAYWET)
 ---------------------------------------------------------------------------
    1   CONVERTIBLE      HARMONIC     1.000E+00    VERTICAL K  NON-WETTABLE

 WETTING CAPABILITY IS NOT ACTIVE IN ANY LAYER

 OPENING FILE ON UNIT   99:
 hk_Layer_1.ref                                                                                                                                                                                          



              HYD. COND. ALONG ROWS FOR LAYER   1
 READING ON UNIT   99 WITH FORMAT: (20G15.6)           

      VERTICAL HYD. COND. =   1.00000     FOR LAYER   1

 OPENING FILE ON UNIT   99:
 ss_Layer_1.ref                                                                                                                                                                                          



                   SPECIFIC STORAGE FOR LAYER   1
 READING ON UNIT   99 WITH FORMAT: (20G15.6)           

           SPECIFIC YIELD =  0.163069     FOR LAYER   1

 WEL -- WELL PACKAGE, VERSION 1.0.6, 12/05/2012 INPUT READ FROM UNIT   20
 # Well file for MODFLOW, generated by Flopy.
 No named parameters
 MAXIMUM OF      6 ACTIVE WELLS AT ONE TIME
 No named parameters


     0 Well parameters

 RIV -- RIVER PACKAGE, VERSION 7, 5/2/2005 INPUT READ FROM UNIT   18
 # RIV for MODFLOW, generated by Flopy.
 No named parameters
 MAXIMUM OF     40 ACTIVE RIVER REACHES AT ONE TIME


     0 River parameters

 RCH -- RECHARGE PACKAGE, VERSION 7, 5/2/2005 INPUT READ FROM UNIT   19
 # RCH for MODFLOW, generated by Flopy.
 No named parameters
 OPTION 3 -- RECHARGE TO HIGHEST ACTIVE NODE IN EACH VERTICAL COLUMN


     0 Recharge parameters

 PCG -- CONJUGATE-GRADIENT SOLUTION PACKAGE, VERSION 7, 5/2/2005
 MAXIMUM OF    100 CALLS OF SOLUTION ROUTINE
 MAXIMUM OF     25 INTERNAL ITERATIONS PER CALL TO SOLUTION ROUTINE
 MATRIX PRECONDITIONING TYPE :    1
 IHCOFADD option -- When an active cell is surrounded by dry cells, convert
 the cell to dry only if storage and head-dependent boundary flow are 0.



                                    SOLUTION BY THE CONJUGATE-GRADIENT METHOD
                                   -------------------------------------------
                    MAXIMUM NUMBER OF CALLS TO PCG ROUTINE =      100
                        MAXIMUM ITERATIONS PER CALL TO PCG =       25
                               MATRIX PRECONDITIONING TYPE =        1
        RELAXATION FACTOR (ONLY USED WITH PRECOND. TYPE 1) =    0.10000E+01
 PARAMETER OF POLYNOMIAL PRECOND. = 2 (2) OR IS CALCULATED :        2
                         HEAD CHANGE CRITERION FOR CLOSURE =    0.10000E-04
                     RESIDUAL CHANGE CRITERION FOR CLOSURE =    0.10000E+00
            PCG HEAD AND RESIDUAL CHANGE PRINTOUT INTERVAL =        5
     PRINTING FROM SOLVER IS LIMITED(1) OR SUPPRESSED (>1) =        0
                            STEADY-STATE DAMPING PARAMETER =    0.70000E+00
                               TRANSIENT DAMPING PARAMETER =    0.70000E+00
1
                            STRESS PERIOD NO.    1, LENGTH =   1.000000    
                            -----------------------------------------------

                              NUMBER OF TIME STEPS =     1

                               MULTIPLIER FOR DELT =     1.000

                            INITIAL TIME STEP SIZE =   1.000000    

 WELL NO.  LAYER   ROW   COL   STRESS RATE         
 --------------------------------------------------
      1      1      9     16       100.0    
      2      1     11     13       107.6    
      3      1     20     14       108.4    
      4      1     26     10       92.59    
      5      1     29      6       96.29    
      6      1     34     12       101.9    

      6 WELLS

 REACH NO.  LAYER   ROW   COL     STAGE      CONDUCTANCE     BOTTOM EL.         
 -------------------------------------------------------------------------------
      1      1      1     15       20.10           1736.           20.00    
      2      1      2     15       19.87           3041.           19.75    
      3      1      3     15       19.65           2746.           19.50    
      4      1      4     15       19.42           1880.           19.25    
      5      1      5     15       19.19           841.4           19.00    
      6      1      6     15       18.97          0.1240E+05       18.75    
      7      1      7     15       18.74           5658.           18.50    
      8      1      8     15       18.51           3756.           18.25    
      9      1      9     15       18.28           4908.           18.00    
     10      1     10     15       19.06          0.3635E+05       17.75    
     11      1     11     15       17.83           7212.           17.50    
     12      1     12     15       17.60           9318.           17.25    
     13      1     13     15       17.38           5542.           17.00    
     14      1     14     15       17.15          0.1477E+05       16.75    
     15      1     15     15       16.92          0.1768E+05       16.50    
     16      1     16     15       16.70           2462.           16.25    
     17      1     17     15       16.47          0.1010E+05       16.00    
     18      1     18     15       16.24           432.4           15.75    
     19      1     19     15       16.02          0.5331E+05       15.50    
     20      1     20     15       15.79           808.6           15.25    
     21      1     21     15       15.56           4475.           15.00    
     22      1     22     15       15.33          0.3236E+05       14.75    
     23      1     23     15       15.11           3775.           14.50    
     24      1     24     15       14.88           2845.           14.25    
     25      1     25     15       14.65           9275.           14.00    
     26      1     26     15       14.43           8251.           13.75    
     27      1     27     15       14.20           1708.           13.50    
     28      1     28     15       13.97           9358.           13.25    
     29      1     29     15       13.75          0.1068E+05       13.00    
     30      1     30     15       13.52           1882.           12.75    
     31      1     31     15       13.29           8749.           12.50    
     32      1     32     15       13.07           1253.           12.25    
     33      1     33     15       12.84           2220.           12.00    
     34      1     34     15       12.61           6193.           11.75    
     35      1     35     15       12.38          0.3824E+05       11.50    
     36      1     36     15       12.16           3955.           11.25    
     37      1     37     15       11.93           3163.           11.00    
     38      1     38     15       11.70          0.1031E+05       10.75    
     39      1     39     15       11.48          0.1322E+05       10.50    
     40      1     40     15       11.25           1260.           10.25    

     40 RIVER REACHES

 OPENING FILE ON UNIT   99:
 rech_0.ref                                                                                                                                                                                              



                           RECHARGE
 READING ON UNIT   99 WITH FORMAT: (20G15.6)           

 SOLVING FOR HEAD 


    16 CALLS TO PCG ROUTINE FOR TIME STEP   1 IN STRESS PERIOD    1
   249 TOTAL ITERATIONS

 MAXIMUM HEAD CHANGE FOR EACH ITERATION (1 INDICATES THE FIRST INNER ITERATION):

    HEAD CHANGE    HEAD CHANGE    HEAD CHANGE    HEAD CHANGE    HEAD CHANGE 
   LAYER,ROW,COL  LAYER,ROW,COL  LAYER,ROW,COL  LAYER,ROW,COL  LAYER,ROW,COL
 ---------------------------------------------------------------------------
  1   69.45      0  -73.80      0  -33.91      0   14.51      0   10.79    
   (  1,  9,  4)  (  1,  9,  4)  (  1, 12,  2)  (  1, 39,  9)  (  1, 39,  9)
  0   2.402      0  -1.719      0  0.6776      0 -0.6210      0  0.4204    
   (  1, 25, 11)  (  1, 19,  2)  (  1, 11,  3)  (  1, 31,  5)  (  1,  9,  4)
  0 -0.4751      0 -0.1112      0  0.7477E-01  0  0.6726E-01  0 -0.3795E-01
   (  1,  9,  4)  (  1, 30,  6)  (  1, 18,  3)  (  1, 11,  3)  (  1, 11,  3)
  0  0.1650E-01  0  0.1169E-01  0  0.1623E-01  0 -0.1320E-01  0  0.4175E-02
   (  1, 33, 10)  (  1, 12,  2)  (  1,  9,  4)  (  1, 12,  2)  (  1, 18,  3)
  0 -0.1747E-02  0 -0.9358E-03  0  0.6836E-03  0  0.5438E-03  0 -0.5744E-03
   (  1, 27,  3)  (  1, 15, 12)  (  1, 27,  4)  (  1, 10,  4)  (  1,  9,  4)
  1   36.00      0  -31.55      0  -12.11      0  -3.945      0   3.964    
   (  1,  9,  4)  (  1,  9,  4)  (  1, 12,  2)  (  1,  8,  5)  (  1, 39,  9)
  0  0.8880      0 -0.4187      0 -0.1707      0 -0.2208      0  0.1633    
   (  1, 39,  9)  (  1, 19,  2)  (  1, 35,  4)  (  1, 31,  5)  (  1,  9,  4)
  0 -0.1166      0 -0.6675E-01  0 -0.2972E-01  0 -0.1498E-01  0 -0.7990E-02
   (  1, 21,  4)  (  1,  8,  5)  (  1, 30,  7)  (  1, 24,  8)  (  1, 22,  3)
  0  0.6553E-02  0  0.5645E-02  0 -0.5034E-02  0 -0.1263E-02  0 -0.2023E-02
   (  1, 19,  3)  (  1,  9,  4)  (  1,  9,  4)  (  1, 39, 13)  (  1, 12,  2)
  0  0.1652E-02  0 -0.7148E-03  0 -0.2042E-03  0  0.1647E-03  0 -0.1672E-03
   (  1, 11,  3)  (  1, 11,  3)  (  1, 16, 12)  (  1, 34,  3)  (  1,  9,  4)
  1   24.42      0  -17.99      0  -7.356      0  -1.928      0  -1.235    
   (  1,  9,  4)  (  1,  9,  4)  (  1, 12,  2)  (  1,  8,  5)  (  1, 32,  1)
  0  0.3878      0 -0.2793      0 -0.1018      0 -0.9850E-01  0  0.6885E-01
   (  1, 39,  9)  (  1, 31,  5)  (  1, 32,  1)  (  1, 31,  5)  (  1,  9,  4)
  0 -0.6243E-01  0 -0.2844E-01  0 -0.1809E-01  0 -0.1055E-01  0 -0.5444E-02
   (  1,  9,  4)  (  1,  8,  5)  (  1, 33,  2)  (  1, 11,  3)  (  1, 28,  6)
  0 -0.1967E-02  0 -0.1992E-02  0  0.1988E-02  0 -0.1825E-02  0  0.1185E-02
   (  1, 27,  8)  (  1,  9,  4)  (  1,  9,  4)  (  1, 12,  3)  (  1, 12,  2)
  0  0.3964E-03  0 -0.2599E-03  0  0.2480E-03  0 -0.7701E-04  0 -0.7722E-04
   (  1, 11,  3)  (  1, 11,  3)  (  1, 38,  9)  (  1, 16, 12)  (  1,  9,  4)
  1   2.435      0   1.522      0  -1.886      0  -1.082      0 -0.4139    
   (  1,  8,  5)  (  1,  9,  4)  (  1,  9,  4)  (  1, 12,  2)  (  1, 32,  1)
  0 -0.1610      0 -0.1229      0  0.3788E-01  0 -0.4189E-01  0  0.1710E-01
   (  1, 34,  3)  (  1, 31,  5)  (  1, 31,  5)  (  1, 31,  5)  (  1,  9,  4)
  0 -0.2539E-01  0 -0.1077E-01  0 -0.9079E-02  0  0.3256E-02  0 -0.1553E-02
   (  1,  9,  4)  (  1, 30,  6)  (  1, 11,  3)  (  1,  5,  3)  (  1,  8,  5)
  0 -0.1562E-02  0  0.6417E-03  0  0.5899E-03  0 -0.7049E-03  0  0.2859E-03
   (  1, 21,  4)  (  1, 19,  3)  (  1,  9,  4)  (  1, 11,  3)  (  1, 12,  3)
  0 -0.2833E-03  0  0.1281E-03  0  0.8306E-04  0 -0.3431E-04  0 -0.1677E-04
   (  1, 12,  2)  (  1, 12,  2)  (  1, 38,  9)  (  1, 15, 12)  (  1, 10,  4)
  1  -1.675      0   1.876      0  0.5771      0 -0.3313      0 -0.1414    
   (  1,  9,  4)  (  1,  9,  4)  (  1, 12,  2)  (  1, 12,  2)  (  1, 32,  1)
  0 -0.9098E-01  0 -0.3845E-01  0  0.1593E-01  0 -0.1676E-01  0  0.8445E-02
   (  1, 19,  3)  (  1, 10, 12)  (  1, 31,  5)  (  1, 31,  5)  (  1,  9,  4)
  0 -0.1071E-01  0 -0.3536E-02  0 -0.2984E-02  0  0.1292E-02  0 -0.5562E-03
   (  1,  9,  4)  (  1, 29,  5)  (  1, 11,  3)  (  1, 11,  3)  (  1, 11,  3)
  0 -0.3762E-03  0 -0.1979E-03  0  0.2341E-03  0 -0.1634E-03  0 -0.1853E-03
   (  1, 19, 11)  (  1, 11, 10)  (  1,  9,  4)  (  1, 34,  3)  (  1, 12,  2)
  0 -0.8592E-04  0  0.5941E-04  0 -0.2879E-04  0 -0.1567E-04  0 -0.7519E-05
   (  1,  8,  5)  (  1,  7,  4)  (  1, 19,  3)  (  1, 15, 12)  (  1, 10,  4)
  1 -0.7151      0  0.6761      0  0.2504      0 -0.9343E-01  0 -0.6989E-01
   (  1,  9,  4)  (  1,  9,  4)  (  1, 12,  2)  (  1, 15,  4)  (  1,  8,  5)
  0 -0.3127E-01  0 -0.1234E-01  0 -0.4993E-02  0 -0.4938E-02  0  0.3884E-02
   (  1, 19,  3)  (  1, 10, 12)  (  1, 11, 11)  (  1, 31,  5)  (  1,  9,  4)
  0 -0.2761E-02  0 -0.1468E-02  0 -0.7200E-03  0 -0.3842E-03  0  0.2053E-03
   (  1, 11,  3)  (  1, 29,  5)  (  1, 36,  5)  (  1, 11, 11)  (  1, 11,  3)
  0 -0.1634E-03  0  0.6022E-04  0  0.9533E-04  0 -0.5612E-04  0 -0.5278E-04
   (  1, 11,  3)  (  1,  8,  5)  (  1,  9,  4)  (  1, 34,  3)  (  1, 14,  2)
  0  0.3278E-04  0  0.1580E-04  0 -0.8137E-05  1 -0.1773      0  0.1593    
   (  1, 12,  2)  (  1, 15, 12)  (  1, 19,  3)  (  1,  9,  4)  (  1,  9,  4)
  0  0.6401E-01  0 -0.4490E-01  0 -0.2156E-01  0 -0.8859E-02  0 -0.3497E-02
   (  1, 12,  2)  (  1, 15,  4)  (  1,  8,  5)  (  1, 19,  3)  (  1, 10, 12)
  0 -0.1380E-02  0 -0.1796E-02  0 -0.1173E-02  0 -0.5325E-03  0 -0.3875E-03
   (  1, 29,  7)  (  1, 31,  5)  (  1,  9,  4)  (  1,  5,  5)  (  1, 29,  5)
  0 -0.1885E-03  0 -0.1078E-03  0 -0.5771E-04  0 -0.4513E-04  0  0.2088E-04
   (  1, 36,  5)  (  1, 28,  9)  (  1, 10, 12)  (  1, 19, 11)  (  1, 11,  3)
  0  0.3026E-04  0 -0.2685E-04  0 -0.1488E-04  0  0.7794E-05  1  0.2186E-01
   (  1,  9,  4)  (  1,  9,  4)  (  1, 12,  2)  (  1, 15, 12)  (  1, 29, 13)
  0  0.2557E-01  0  0.1430E-01  0  0.1403E-01  0 -0.1133E-01  0 -0.2909E-02
   (  1,  9,  4)  (  1,  8,  5)  (  1, 12,  2)  (  1, 15,  4)  (  1, 33,  2)
  0  0.1271E-02  0  0.5995E-03  0 -0.5928E-03  0 -0.4251E-03  0  0.2071E-03
   (  1, 32,  4)  (  1, 11,  3)  (  1, 31,  5)  (  1, 19,  3)  (  1,  9,  4)
  0 -0.1924E-03  0  0.6477E-04  0  0.3767E-04  0  0.1857E-04  0 -0.1181E-04
   (  1,  9,  4)  (  1, 18,  2)  (  1, 34,  3)  (  1, 31,  5)  (  1, 12, 10)
  0  0.8983E-05  1  0.8263E-02  0 -0.1079E-01  0  0.3395E-02  0  0.4424E-02
   (  1, 11,  3)  (  1, 11,  3)  (  1,  9,  4)  (  1,  7,  4)  (  1, 12,  2)
  0 -0.2900E-02  0 -0.8276E-03  0 -0.5016E-03  0  0.3005E-03  0 -0.1547E-03
   (  1, 14,  4)  (  1, 33,  2)  (  1, 19,  3)  (  1, 19,  3)  (  1, 11,  3)
  0  0.7641E-04  0 -0.8127E-04  0 -0.2846E-04  0  0.1892E-04  0  0.1024E-04
   (  1,  9,  4)  (  1,  9,  4)  (  1, 37,  5)  (  1, 11,  3)  (  1, 31,  5)
  0  0.4740E-05  1  0.5205E-02  0 -0.5349E-02  0 -0.1812E-02  0  0.1075E-02
   (  1, 34,  3)  (  1,  9,  4)  (  1,  9,  4)  (  1, 12,  2)  (  1, 13,  3)
  0 -0.7256E-03  0  0.3075E-03  0 -0.1809E-03  0  0.8277E-04  0 -0.3443E-04
   (  1, 14,  4)  (  1,  8,  5)  (  1, 20,  4)  (  1, 19,  3)  (  1, 27, 10)
  0  0.3361E-04  0 -0.3894E-04  0  0.1239E-04  0  0.6940E-05  1  0.1996E-02
   (  1,  9,  4)  (  1,  9,  3)  (  1, 31,  5)  (  1, 32,  4)  (  1,  9,  4)
  0 -0.1892E-02  0 -0.6494E-03  0 -0.3000E-03  0 -0.1531E-03  0  0.8217E-04
   (  1,  9,  4)  (  1, 12,  2)  (  1, 29, 13)  (  1, 12,  3)  (  1,  8,  5)
  0 -0.5095E-04  0  0.1938E-04  0  0.1548E-04  0 -0.1322E-04  0 -0.8472E-05
   (  1, 20,  4)  (  1, 21,  4)  (  1, 11,  3)  (  1,  9,  4)  (  1, 11, 11)
  1  0.6482E-03  0 -0.5766E-03  0 -0.2205E-03  0 -0.8150E-04  0 -0.4152E-04
   (  1,  9,  4)  (  1,  9,  4)  (  1, 12,  2)  (  1, 38, 14)  (  1, 35, 14)
  0 -0.3046E-04  0 -0.1640E-04  0  0.5931E-05  1  0.1426E-03  0 -0.1437E-03
   (  1, 31,  5)  (  1, 21,  4)  (  1, 11, 11)  (  1,  9,  3)  (  1,  9,  4)
  0 -0.3783E-04  0  0.4227E-04  0 -0.2929E-04  0 -0.9407E-05  1  0.3195E-04
   (  1, 12,  3)  (  1, 12,  2)  (  1, 12,  2)  (  1, 31,  5)  (  1,  9,  4)
  0 -0.4129E-04  0 -0.2256E-04  0 -0.1040E-04  0  0.8221E-05  1 -0.1536E-04
   (  1,  9,  4)  (  1, 31,  5)  (  1, 29, 12)  (  1, 12,  2)  (  1, 12,  2)
  0 -0.1325E-04  0  0.1615E-04  0  0.8780E-05  1 -0.3887E-05
   (  1,  9,  4)  (  1,  9,  4)  (  1, 11, 11)  (  1, 12,  2)

 MAXIMUM RESIDUAL FOR EACH ITERATION (1 INDICATES THE FIRST INNER ITERATION):

    RESIDUAL       RESIDUAL       RESIDUAL       RESIDUAL       RESIDUAL    
   LAYER,ROW,COL  LAYER,ROW,COL  LAYER,ROW,COL  LAYER,ROW,COL  LAYER,ROW,COL
 ---------------------------------------------------------------------------
  1  0.1361E+05  0   6857.      0   4097.      0  -2758.      0  -1263.    
   (  1, 19, 15)  (  1, 19, 15)  (  1, 19, 15)  (  1, 39,  7)  (  1, 39,  7)
  0  -530.7      0  -350.9      0  -305.9      0  -207.0      0  -184.9    
   (  1, 39,  7)  (  1, 37, 15)  (  1, 37, 15)  (  1, 37, 15)  (  1, 37, 15)
  0  -133.3      0  -79.54      0  -54.69      0  -36.31      0  -19.23    
   (  1, 37, 15)  (  1, 37, 15)  (  1, 37, 15)  (  1, 37, 15)  (  1, 37, 15)
  0  -8.827      0  -7.170      0  -6.140      0   4.465      0   2.342    
   (  1, 37, 15)  (  1, 37, 15)  (  1, 37, 15)  (  1, 19, 15)  (  1, 19, 15)
  0  -1.367      0 -0.7490      0 -0.3092      0 -0.2008      0 -0.1391    
   (  1, 39, 15)  (  1, 39, 15)  (  1, 39, 15)  (  1, 39, 15)  (  1, 39, 15)
  1   5351.      0   1654.      0   847.1      0  -655.7      0  -303.7    
   (  1, 19, 15)  (  1, 19, 15)  (  1, 19, 15)  (  1, 39,  7)  (  1, 39,  7)
  0  -140.8      0  -70.64      0  -60.60      0  -42.87      0  -39.53    
   (  1, 39,  7)  (  1, 37, 14)  (  1, 37, 15)  (  1, 37, 15)  (  1, 37, 15)
  0  -30.26      0  -19.04      0  -12.78      0  -8.688      0  -4.864    
   (  1, 37, 15)  (  1, 37, 15)  (  1, 37, 15)  (  1, 37, 15)  (  1, 37, 15)
  0  -2.562      0  -1.995      0  -1.555      0 -0.9430      0 -0.7225    
   (  1, 37, 15)  (  1, 39, 15)  (  1, 39, 15)  (  1, 39, 15)  (  1, 39, 15)
  0 -0.5035      0 -0.3412      0 -0.1956      0 -0.9014E-01  0 -0.6750E-01
   (  1, 39, 15)  (  1, 39, 15)  (  1, 39, 15)  (  1, 39, 15)  (  1, 39, 15)
  1   5105.      0   1303.      0   376.0      0   192.1      0  -94.04    
   (  1, 19, 15)  (  1, 19, 15)  (  1, 19, 15)  (  1, 19, 15)  (  1, 39,  7)
  0  -51.48      0  -31.33      0  -14.13      0  -9.602      0  -7.474    
   (  1, 39,  7)  (  1, 31,  5)  (  1, 37, 14)  (  1, 30, 10)  (  1, 37, 15)
  0  -6.836      0  -5.250      0  -3.675      0  -2.721      0  -1.707    
   (  1, 37, 15)  (  1, 37, 15)  (  1, 37, 15)  (  1, 37, 15)  (  1, 37, 15)
  0  -1.024      0 -0.6991      0 -0.6090      0 -0.4887      0 -0.3512    
   (  1, 37, 15)  (  1, 37, 15)  (  1, 39, 15)  (  1, 39, 15)  (  1, 39, 15)
  0 -0.2420      0 -0.1531      0 -0.8440E-01  0 -0.4940E-01  0 -0.4120E-01
   (  1, 39, 15)  (  1, 39, 15)  (  1, 39, 15)  (  1, 39, 15)  (  1, 39, 15)
  1   757.4      0   399.6      0   181.6      0   83.53      0   37.25    
   (  1, 19, 15)  (  1, 19, 15)  (  1, 19, 15)  (  1, 35, 15)  (  1, 35, 15)
  0   19.73      0  -10.98      0   5.745      0  -3.661      0   2.467    
   (  1, 35, 15)  (  1, 31,  5)  (  1, 19, 15)  (  1, 30, 10)  (  1, 19, 15)
  0   1.894      0  -1.255      0  -1.049      0 -0.8051      0 -0.5453    
   (  1, 19, 15)  (  1, 37, 15)  (  1, 37, 15)  (  1, 37, 15)  (  1, 37, 15)
  0 -0.3507      0 -0.2192      0 -0.1976      0 -0.1310      0 -0.1055    
   (  1, 37, 15)  (  1, 37, 15)  (  1, 37, 15)  (  1, 39, 15)  (  1, 39, 15)
  0 -0.8078E-01  0 -0.5173E-01  0 -0.2921E-01  0 -0.1737E-01  0 -0.1068E-01
   (  1, 39, 15)  (  1, 39, 15)  (  1, 39, 15)  (  1, 39, 15)  (  1, 39, 15)
  1   816.1      0   255.1      0   115.8      0   39.51      0   17.20    
   (  1, 19, 15)  (  1, 19, 15)  (  1, 19, 15)  (  1, 35, 15)  (  1, 35, 15)
  0   8.339      0   3.269      0   2.228      0   1.426      0   1.006    
   (  1, 35, 15)  (  1, 35, 15)  (  1, 19, 15)  (  1, 19, 15)  (  1, 19, 15)
  0  0.7133      0  0.5815      0 -0.2743      0 -0.2053      0 -0.1517    
   (  1, 19, 15)  (  1, 11,  3)  (  1, 37, 15)  (  1, 37, 15)  (  1, 37, 15)
  0 -0.1093      0 -0.7542E-01  0 -0.6878E-01  0 -0.4500E-01  0 -0.3583E-01
   (  1, 37, 15)  (  1, 37, 15)  (  1, 37, 15)  (  1, 39, 15)  (  1, 39, 15)
  0 -0.2720E-01  0 -0.1800E-01  0 -0.1083E-01  0 -0.6254E-02  0 -0.3526E-02
   (  1, 39, 15)  (  1, 39, 15)  (  1, 39, 15)  (  1, 39, 15)  (  1, 39, 15)
  1   348.8      0   102.4      0   47.72      0   17.35      0   7.338    
   (  1, 19, 15)  (  1, 19, 15)  (  1, 19, 15)  (  1, 19, 15)  (  1, 35, 15)
  0   3.069      0   1.153      0  0.8270      0  0.5129      0  0.4507    
   (  1, 35, 15)  (  1, 19, 15)  (  1, 19, 15)  (  1, 19, 15)  (  1, 19, 15)
  0  0.2577      0  0.1643      0 -0.8036E-01  0 -0.5734E-01  0 -0.4481E-01
   (  1, 19, 15)  (  1, 11,  3)  (  1, 39, 15)  (  1, 39, 15)  (  1, 39, 15)
  0 -0.3281E-01  0 -0.2474E-01  0 -0.2296E-01  0 -0.1472E-01  0 -0.1113E-01
   (  1, 39, 15)  (  1, 37, 15)  (  1, 37, 15)  (  1, 39, 15)  (  1, 39, 15)
  0 -0.8806E-02  0 -0.5509E-02  0 -0.3336E-02  1   78.59      0   35.91    
   (  1, 39, 15)  (  1, 39, 15)  (  1, 39, 15)  (  1, 19, 15)  (  1, 19, 15)
  0   14.08      0   5.864      0   2.803      0  -1.030      0  0.4083    
   (  1, 19, 15)  (  1, 19, 15)  (  1, 35, 15)  (  1, 38, 13)  (  1, 19, 15)
  0  0.2862      0  0.1548      0  0.1337      0  0.8535E-01  0  0.4484E-01
   (  1, 19, 15)  (  1, 19, 15)  (  1, 19, 15)  (  1, 19, 15)  (  1, 11,  3)
  0 -0.2335E-01  0 -0.1703E-01  0 -0.1336E-01  0 -0.9511E-02  0 -0.7195E-02
   (  1, 39, 15)  (  1, 39, 15)  (  1, 39, 15)  (  1, 39, 15)  (  1, 39, 15)
  0 -0.5548E-02  0 -0.4233E-02  0 -0.3574E-02  0 -0.2400E-02  1   15.61    
   (  1, 39, 15)  (  1, 39, 15)  (  1, 39, 15)  (  1, 39, 15)  (  1, 19, 15)
  0   11.16      0   5.823      0   2.624      0  0.9879      0 -0.3635    
   (  1, 19, 15)  (  1, 19, 15)  (  1, 19, 15)  (  1, 35, 15)  (  1, 38, 13)
  0  0.1465      0  0.9298E-01  0  0.4941E-01  0  0.3115E-01  0  0.2450E-01
   (  1, 19, 15)  (  1, 19, 15)  (  1, 19, 15)  (  1, 19, 15)  (  1, 19, 15)
  0  0.1252E-01  0  0.8895E-02  0 -0.4877E-02  0 -0.3890E-02  0 -0.2715E-02
   (  1, 11,  3)  (  1, 30, 10)  (  1, 39, 15)  (  1, 39, 15)  (  1, 39, 15)
  0 -0.2051E-02  1   6.940      0   4.399      0   2.580      0   1.022    
   (  1, 39, 15)  (  1, 19, 15)  (  1, 19, 15)  (  1, 19, 15)  (  1, 19, 15)
  0  0.3230      0 -0.1236      0  0.5380E-01  0  0.3015E-01  0  0.1434E-01
   (  1, 35, 15)  (  1, 38, 13)  (  1, 19, 15)  (  1, 19, 15)  (  1, 19, 15)
  0  0.1245E-01  0  0.7702E-02  0 -0.3598E-02  0 -0.2716E-02  0 -0.1290E-02
   (  1, 19, 15)  (  1, 19, 15)  (  1, 32, 11)  (  1, 29, 11)  (  1, 39, 15)
  0 -0.9810E-03  1   3.551      0   1.582      0  0.9576      0  0.3496    
   (  1, 39, 15)  (  1, 19, 15)  (  1, 19, 15)  (  1, 19, 15)  (  1, 19, 15)
  0  0.1011      0  0.4375E-01  0  0.1919E-01  0  0.1075E-01  0  0.6238E-02
   (  1, 19, 15)  (  1, 19, 15)  (  1, 19, 15)  (  1, 19, 15)  (  1, 19, 15)
  0  0.5122E-02  0  0.3177E-02  0  0.1451E-02  0  0.9540E-03  1   1.381    
   (  1, 19, 15)  (  1, 19, 15)  (  1, 29, 11)  (  1, 26, 13)  (  1, 19, 15)
  0  0.5296      0  0.3329      0  0.1154      0  0.3156E-01  0  0.1502E-01
   (  1, 19, 15)  (  1, 19, 15)  (  1, 19, 15)  (  1, 19, 15)  (  1, 19, 15)
  0  0.6662E-02  0  0.3666E-02  0  0.2086E-02  0  0.1804E-02  0  0.1001E-02
   (  1, 19, 15)  (  1, 19, 15)  (  1, 19, 15)  (  1, 19, 15)  (  1, 19, 15)
  1  0.4355      0  0.1714      0  0.1100      0  0.3931E-01  0  0.1129E-01
   (  1, 19, 15)  (  1, 19, 15)  (  1, 19, 15)  (  1, 19, 15)  (  1, 19, 15)
  0  0.5357E-02  0  0.2219E-02  0  0.1096E-02  1  0.1117      0  0.5912E-01
   (  1, 19, 15)  (  1, 19, 15)  (  1, 19, 15)  (  1, 19, 15)  (  1, 19, 15)
  0  0.3246E-01  0  0.1610E-01  0  0.4385E-02  0  0.1740E-02  1  0.4771E-01
   (  1, 19, 15)  (  1, 19, 15)  (  1, 19, 15)  (  1, 19, 15)  (  1, 19, 15)
  0  0.3241E-01  0  0.1471E-01  0  0.3168E-02  0  0.1297E-02  1  0.4299E-01
   (  1, 19, 15)  (  1, 19, 15)  (  1, 19, 15)  (  1, 19, 15)  (  1, 19, 15)
  0  0.2056E-01  0  0.1242E-01  0  0.1507E-02  1  0.1441E-01
   (  1, 19, 15)  (  1, 19, 15)  (  1, 19, 15)  (  1, 19, 15)



 OUTPUT CONTROL FOR STRESS PERIOD    1   TIME STEP    1
    SAVE HEAD FOR ALL LAYERS
    SAVE BUDGET
 UBDSV2 SAVING "   CONSTANT HEAD" ON UNIT  53 AT TIME STEP  1, STRESS PERIOD   1
 UBDSV1 SAVING "FLOW RIGHT FACE " ON UNIT  53 AT TIME STEP  1, STRESS PERIOD   1
 UBDSV1 SAVING "FLOW FRONT FACE " ON UNIT  53 AT TIME STEP  1, STRESS PERIOD   1

 HEAD WILL BE SAVED ON UNIT   51 AT END OF TIME STEP    1, STRESS PERIOD    1
1
  VOLUMETRIC BUDGET FOR ENTIRE MODEL AT END OF TIME STEP    1, STRESS PERIOD   1
  ------------------------------------------------------------------------------

     CUMULATIVE VOLUMES      L**3       RATES FOR THIS TIME STEP      L**3/T
     ------------------                 ------------------------

           IN:                                      IN:
           ---                                      ---
             STORAGE =           0.0000               STORAGE =           0.0000
       CONSTANT HEAD =           0.0000         CONSTANT HEAD =           0.0000
               WELLS =         606.8102                 WELLS =         606.8102
       RIVER LEAKAGE =          19.7260         RIVER LEAKAGE =          19.7260
            RECHARGE =        5849.1250              RECHARGE =        5849.1250

            TOTAL IN =        6475.6611              TOTAL IN =        6475.6611

          OUT:                                     OUT:
          ----                                     ----
             STORAGE =           0.0000               STORAGE =           0.0000
       CONSTANT HEAD =         429.8811         CONSTANT HEAD =         429.8811
               WELLS =           0.0000                 WELLS =           0.0000
       RIVER LEAKAGE =        6045.9312         RIVER LEAKAGE =        6045.9312
            RECHARGE =           0.0000              RECHARGE =           0.0000

           TOTAL OUT =        6475.8125             TOTAL OUT =        6475.8125

            IN - OUT =          -0.1514              IN - OUT =          -0.1514

 PERCENT DISCREPANCY =          -0.00     PERCENT DISCREPANCY =          -0.00






         TIME SUMMARY AT END OF TIME STEP    1 IN STRESS PERIOD    1
                    SECONDS     MINUTES      HOURS       DAYS        YEARS
                    -----------------------------------------------------------
   TIME STEP LENGTH  86400.      1440.0      24.000      1.0000     2.73785E-03
 STRESS PERIOD TIME  86400.      1440.0      24.000      1.0000     2.73785E-03
         TOTAL TIME  86400.      1440.0      24.000      1.0000     2.73785E-03
1
1
                            STRESS PERIOD NO.    2, LENGTH =   1825.000    
                            -----------------------------------------------

                              NUMBER OF TIME STEPS =     1

                               MULTIPLIER FOR DELT =     1.000

                            INITIAL TIME STEP SIZE =   1825.000    

 WELL NO.  LAYER   ROW   COL   STRESS RATE         
 --------------------------------------------------
      1      1      9     16       121.3    
      2      1     11     13       81.42    
      3      1     20     14       91.92    
      4      1     26     10       153.0    
      5      1     29      6       89.26    
      6      1     34     12       94.59    

      6 WELLS

 REUSING NON-PARAMETER RIVER REACHES FROM LAST STRESS PERIOD

     40 RIVER REACHES

 OPENING FILE ON UNIT   99:
 rech_1.ref                                                                                                                                                                                              



                           RECHARGE
 READING ON UNIT   99 WITH FORMAT: (20G15.6)           

 SOLVING FOR HEAD 


    11 CALLS TO PCG ROUTINE FOR TIME STEP   1 IN STRESS PERIOD    2
    86 TOTAL ITERATIONS

 MAXIMUM HEAD CHANGE FOR EACH ITERATION (1 INDICATES THE FIRST INNER ITERATION):

    HEAD CHANGE    HEAD CHANGE    HEAD CHANGE    HEAD CHANGE    HEAD CHANGE 
   LAYER,ROW,COL  LAYER,ROW,COL  LAYER,ROW,COL  LAYER,ROW,COL  LAYER,ROW,COL
 ---------------------------------------------------------------------------
  1  -1.863      0 -0.5585      0  0.2498      0  0.6956E-01  0 -0.3878E-01
   (  1, 16,  4)  (  1, 10,  4)  (  1, 18,  4)  (  1,  9,  4)  (  1, 10,  4)
  0 -0.2539E-01  0 -0.1339E-01  0 -0.3151E-02  0 -0.1120E-02  0 -0.4847E-03
   (  1, 11,  3)  (  1, 18,  2)  (  1, 17,  4)  (  1, 17,  3)  (  1, 23,  4)
  0 -0.2294E-03  0 -0.8938E-04  0  0.4629E-04  0  0.2182E-04  0 -0.1424E-04
   (  1,  1,  3)  (  1,  2,  2)  (  1, 11, 11)  (  1, 15,  4)  (  1, 11, 11)
  0  0.5345E-05  1  0.3154      0  0.1106      0  0.7237E-01  0  0.2115E-01
   (  1, 31,  5)  (  1, 17,  4)  (  1, 10,  4)  (  1, 19,  1)  (  1, 11,  3)
  0  0.8421E-02  0  0.3927E-02  0  0.1246E-02  0  0.4589E-03  0  0.1832E-03
   (  1, 17,  2)  (  1, 15,  4)  (  1, 19,  2)  (  1, 18,  1)  (  1, 16,  3)
  0  0.1306E-03  0  0.3205E-04  0  0.1404E-04  0  0.5307E-05  1  0.9215E-01
   (  1, 11, 11)  (  1, 10, 12)  (  1, 19,  2)  (  1, 31,  5)  (  1, 17,  4)
  0  0.3114E-01  0  0.2052E-01  0  0.6109E-02  0  0.2866E-02  0  0.1253E-02
   (  1, 10,  4)  (  1, 19,  1)  (  1, 11,  3)  (  1, 17,  2)  (  1, 15,  4)
  0  0.3806E-03  0  0.1406E-03  0  0.5321E-04  0  0.3447E-04  0  0.1067E-04
   (  1, 19,  2)  (  1, 18,  1)  (  1, 17,  3)  (  1, 11, 11)  (  1, 18,  2)
  0 -0.4131E-05  1  0.2653E-01  0  0.8828E-02  0  0.5755E-02  0  0.1800E-02
   (  1,  5,  4)  (  1, 17,  4)  (  1, 10,  3)  (  1, 19,  1)  (  1, 11,  3)
  0  0.9030E-03  0  0.3890E-03  0  0.1105E-03  0  0.4296E-04  0  0.1542E-04
   (  1, 17,  2)  (  1, 15,  4)  (  1, 19,  2)  (  1, 18,  2)  (  1, 17,  3)
  0  0.8989E-05  1  0.7539E-02  0  0.2553E-02  0  0.1605E-02  0  0.5383E-03
   (  1, 11, 11)  (  1, 18,  4)  (  1, 11,  3)  (  1, 19,  1)  (  1, 11,  3)
  0  0.2714E-03  0  0.1190E-03  0  0.3127E-04  0  0.1248E-04  0  0.4682E-05
   (  1, 17,  2)  (  1, 15,  4)  (  1, 19,  2)  (  1, 18,  1)  (  1, 29, 11)
  1  0.2154E-02  0  0.7706E-03  0  0.4470E-03  0  0.1625E-03  0  0.7958E-04
   (  1, 18,  4)  (  1, 11,  3)  (  1, 19,  1)  (  1, 11,  3)  (  1, 17,  2)
  0  0.3578E-04  0  0.8853E-05  1  0.6098E-03  0  0.2322E-03  0  0.1238E-03
   (  1, 15,  4)  (  1, 19,  2)  (  1, 18,  4)  (  1, 11,  3)  (  1, 19,  1)
  0  0.4943E-04  0  0.2318E-04  0  0.1082E-04  0  0.3018E-05  1  0.1713E-03
   (  1, 11,  3)  (  1, 17,  2)  (  1, 15,  4)  (  1, 18,  2)  (  1, 18,  4)
  0  0.6965E-04  0  0.3429E-04  0  0.1508E-04  0  0.6650E-05  1  0.4757E-04
   (  1, 11,  3)  (  1, 19,  1)  (  1, 11,  3)  (  1, 17,  2)  (  1, 18,  4)
  0  0.1864E-04  0  0.1068E-04  0  0.4829E-05  1  0.1316E-04  0  0.9777E-05
   (  1, 11,  3)  (  1, 19,  1)  (  1, 11,  3)  (  1, 17,  3)  (  1, 11,  3)
  1 -0.4482E-05
   (  1, 11,  3)

 MAXIMUM RESIDUAL FOR EACH ITERATION (1 INDICATES THE FIRST INNER ITERATION):

    RESIDUAL       RESIDUAL       RESIDUAL       RESIDUAL       RESIDUAL    
   LAYER,ROW,COL  LAYER,ROW,COL  LAYER,ROW,COL  LAYER,ROW,COL  LAYER,ROW,COL
 ---------------------------------------------------------------------------
  1   75.94      0   32.77      0   15.07      0   7.808      0   4.205    
   (  1, 10,  3)  (  1, 12,  2)  (  1, 19, 15)  (  1, 19, 15)  (  1, 11,  3)
  0  -1.920      0  0.7270      0  0.4329      0  0.2319      0  0.9444E-01
   (  1, 11,  3)  (  1, 19, 15)  (  1, 29, 11)  (  1, 30, 10)  (  1, 19, 15)
  0  0.2670E-01  0  0.9592E-02  0  0.3755E-02  0  0.2429E-02  0  0.1285E-02
   (  1, 19, 15)  (  1, 19, 15)  (  1, 19, 15)  (  1, 19, 15)  (  1, 19, 15)
  0  0.6954E-03  1  -19.27      0  -7.857      0  -5.672      0   1.732    
   (  1, 19, 15)  (  1, 10,  3)  (  1, 12,  2)  (  1, 11,  3)  (  1, 19, 15)
  0  0.5400      0  0.2423      0  0.1936      0  0.7888E-01  0  0.3380E-01
   (  1, 19, 15)  (  1, 19, 15)  (  1, 29, 11)  (  1, 19, 15)  (  1, 19, 15)
  0  0.1362E-01  0  0.4738E-02  0  0.1421E-02  0  0.6658E-03  1  -5.363    
   (  1, 19, 15)  (  1, 19, 15)  (  1, 19, 15)  (  1, 31,  5)  (  1, 10,  3)
  0  -2.229      0  -1.628      0  0.5023      0  0.1514      0  0.6769E-01
   (  1, 12,  2)  (  1, 11,  3)  (  1, 19, 15)  (  1, 19, 15)  (  1, 19, 15)
  0  0.4440E-01  0  0.2268E-01  0  0.1025E-01  0  0.4355E-02  0  0.1345E-02
   (  1, 29, 11)  (  1, 19, 15)  (  1, 29, 11)  (  1, 19, 15)  (  1, 19, 15)
  0  0.4318E-03  1  -1.479      0 -0.6461      0 -0.4626      0  0.1452    
   (  1, 19, 15)  (  1, 10,  3)  (  1, 12,  2)  (  1, 11,  3)  (  1, 19, 15)
  0  0.4405E-01  0  0.1901E-01  0  0.1185E-01  0  0.6504E-02  0  0.3704E-02
   (  1, 19, 15)  (  1, 19, 15)  (  1, 27, 10)  (  1, 19, 15)  (  1, 29, 11)
  0  0.1274E-02  1 -0.4056      0 -0.1925      0 -0.1306      0 -0.4251E-01
   (  1, 19, 15)  (  1, 10,  3)  (  1, 12,  2)  (  1, 11,  3)  (  1, 10,  4)
  0  0.1413E-01  0 -0.5617E-02  0  0.3587E-02  0  0.1857E-02  0  0.1179E-02
   (  1,  7, 15)  (  1, 27, 12)  (  1, 27, 10)  (  1, 19, 15)  (  1, 29, 11)
  1 -0.1110      0 -0.5871E-01  0 -0.3675E-01  0 -0.1331E-01  0  0.4608E-02
   (  1, 10,  3)  (  1, 12,  2)  (  1, 11,  3)  (  1, 10,  4)  (  1,  7, 15)
  0 -0.1782E-02  0  0.1051E-02  1 -0.3187E-01  0 -0.1814E-01  0 -0.1034E-01
   (  1, 27, 12)  (  1, 27, 10)  (  1, 11,  3)  (  1, 12,  2)  (  1, 11,  3)
  0 -0.4217E-02  0  0.1478E-02  0  0.5316E-03  0 -0.2427E-03  1 -0.9266E-02
   (  1, 10,  4)  (  1,  7, 15)  (  1,  7, 15)  (  1, 26, 13)  (  1, 11,  3)
  0 -0.5620E-02  0 -0.2936E-02  0 -0.1316E-02  0  0.4660E-03  1 -0.2376E-02
   (  1, 12,  2)  (  1, 11,  3)  (  1, 10,  4)  (  1,  7, 15)  (  1, 10,  3)
  0 -0.1695E-02  0 -0.9012E-03  0  0.4028E-03  1 -0.1652E-02  0  0.6757E-03
   (  1, 12,  2)  (  1, 11,  3)  (  1, 11,  3)  (  1, 11,  3)  (  1, 11,  3)
  1 -0.1143E-02
   (  1, 11,  3)



 OUTPUT CONTROL FOR STRESS PERIOD    2   TIME STEP    1
    SAVE HEAD FOR ALL LAYERS
    SAVE BUDGET
 UBDSV1 SAVING "         STORAGE" ON UNIT  53 AT TIME STEP  1, STRESS PERIOD   2
 UBDSV2 SAVING "   CONSTANT HEAD" ON UNIT  53 AT TIME STEP  1, STRESS PERIOD   2
 UBDSV1 SAVING "FLOW RIGHT FACE " ON UNIT  53 AT TIME STEP  1, STRESS PERIOD   2
 UBDSV1 SAVING "FLOW FRONT FACE " ON UNIT  53 AT TIME STEP  1, STRESS PERIOD   2

 HEAD WILL BE SAVED ON UNIT   51 AT END OF TIME STEP    1, STRESS PERIOD    2
1
  VOLUMETRIC BUDGET FOR ENTIRE MODEL AT END OF TIME STEP    1, STRESS PERIOD   2
  ------------------------------------------------------------------------------

     CUMULATIVE VOLUMES      L**3       RATES FOR THIS TIME STEP      L**3/T
     ------------------                 ------------------------

           IN:                                      IN:
           ---                                      ---
             STORAGE =     4110281.5000               STORAGE =        2252.2090
       CONSTANT HEAD =           0.0000         CONSTANT HEAD =           0.0000
               WELLS =     1153090.0000                 WELLS =         631.4977
       RIVER LEAKAGE =       82027.7500         RIVER LEAKAGE =          44.9359
            RECHARGE =     3804103.5000              RECHARGE =        2081.2354

            TOTAL IN =     9149502.0000              TOTAL IN =        5009.8779

          OUT:                                     OUT:
          ----                                     ----
             STORAGE =           0.0000               STORAGE =           0.0000
       CONSTANT HEAD =      581878.3125         CONSTANT HEAD =         318.6019
               WELLS =           0.0000                 WELLS =           0.0000
       RIVER LEAKAGE =     8567667.0000         RIVER LEAKAGE =        4691.2993
            RECHARGE =           0.0000              RECHARGE =           0.0000

           TOTAL OUT =     9149545.0000             TOTAL OUT =        5009.9014

            IN - OUT =         -43.0000              IN - OUT =      -2.3438E-02

 PERCENT DISCREPANCY =          -0.00     PERCENT DISCREPANCY =          -0.00






         TIME SUMMARY AT END OF TIME STEP    1 IN STRESS PERIOD    2
                    SECONDS     MINUTES      HOURS       DAYS        YEARS
                    -----------------------------------------------------------
   TIME STEP LENGTH 1.57680E+08 2.62800E+06  43800.      1825.0      4.9966    
 STRESS PERIOD TIME 1.57680E+08 2.62800E+06  43800.      1825.0      4.9966    
         TOTAL TIME 1.57766E+08 2.62944E+06  43824.      1826.0      4.9993    
1
1
                            STRESS PERIOD NO.    3, LENGTH =   1.000000    
                            -----------------------------------------------

                              NUMBER OF TIME STEPS =     1

                               MULTIPLIER FOR DELT =     1.000

                            INITIAL TIME STEP SIZE =   1.000000    

 WELL NO.  LAYER   ROW   COL   STRESS RATE         
 --------------------------------------------------
      1      1      9     16       121.3    
      2      1     11     13       81.42    
      3      1     20     14       91.92    
      4      1     26     10       153.0    
      5      1     29      6       89.26    
      6      1     34     12       94.59    

      6 WELLS

 REUSING NON-PARAMETER RIVER REACHES FROM LAST STRESS PERIOD

     40 RIVER REACHES

 OPENING FILE ON UNIT   99:
 rech_2.ref                                                                                                                                                                                              



                           RECHARGE
 READING ON UNIT   99 WITH FORMAT: (20G15.6)           

 SOLVING FOR HEAD 


    11 CALLS TO PCG ROUTINE FOR TIME STEP   1 IN STRESS PERIOD    3
   162 TOTAL ITERATIONS

 MAXIMUM HEAD CHANGE FOR EACH ITERATION (1 INDICATES THE FIRST INNER ITERATION):

    HEAD CHANGE    HEAD CHANGE    HEAD CHANGE    HEAD CHANGE    HEAD CHANGE 
   LAYER,ROW,COL  LAYER,ROW,COL  LAYER,ROW,COL  LAYER,ROW,COL  LAYER,ROW,COL
 ---------------------------------------------------------------------------
  1  -2.595      0  -2.454      0  -1.630      0  -1.315      0  -1.004    
   (  1,  9,  4)  (  1, 12,  1)  (  1, 32,  1)  (  1, 15,  4)  (  1,  8,  5)
  0 -0.5095      0 -0.1935      0 -0.1145      0  0.7919E-01  0 -0.1082    
   (  1, 18,  3)  (  1,  1,  6)  (  1,  1,  6)  (  1,  9,  4)  (  1, 10,  4)
  0  0.4536E-01  0 -0.2298E-01  0  0.1878E-01  0  0.7536E-02  0 -0.5061E-02
   (  1, 24,  8)  (  1, 19,  1)  (  1, 33,  2)  (  1, 31,  6)  (  1,  2,  7)
  0  0.3302E-02  0 -0.3428E-02  0  0.2372E-02  0  0.1123E-02  0 -0.1486E-02
   (  1, 27,  6)  (  1,  9,  4)  (  1, 11,  3)  (  1, 18,  4)  (  1, 12,  2)
  0  0.5799E-03  0  0.3520E-03  0 -0.1361E-03  0 -0.1403E-03  0  0.1345E-03
   (  1, 12,  3)  (  1, 26,  7)  (  1, 33, 11)  (  1, 10,  4)  (  1,  9,  4)
  1 -0.6064      0  0.2428      0 -0.3377      0  0.1952      0 -0.2057    
   (  1,  9,  4)  (  1,  9,  4)  (  1,  9,  4)  (  1, 12,  2)  (  1, 15,  4)
  0 -0.4759E-01  0 -0.3974E-01  0 -0.2666E-01  0  0.1109E-01  0 -0.9460E-02
   (  1,  7,  9)  (  1,  2,  9)  (  1,  5,  2)  (  1, 11, 11)  (  1, 11,  3)
  0  0.7979E-02  0 -0.6902E-02  0  0.3550E-02  0 -0.2458E-02  0  0.7255E-03
   (  1,  9,  4)  (  1,  6,  1)  (  1, 33,  2)  (  1,  5,  3)  (  1,  8,  6)
  0 -0.5869E-03  0  0.3740E-03  0 -0.3645E-03  0 -0.1569E-03  0  0.2084E-03
   (  1, 11,  3)  (  1, 11,  3)  (  1, 12,  2)  (  1,  9,  3)  (  1,  9,  4)
  0 -0.9896E-04  0 -0.4107E-04  0  0.2578E-04  0 -0.1538E-04  0  0.1013E-04
   (  1, 11, 11)  (  1, 16, 12)  (  1, 16, 12)  (  1, 20,  4)  (  1, 19,  3)
  1  0.1380      0  0.7949E-01  0 -0.1143      0 -0.8778E-01  0  0.3045E-01
   (  1,  9,  4)  (  1, 12,  2)  (  1, 12,  2)  (  1,  8,  5)  (  1,  8,  5)
  0  0.1800E-01  0 -0.1064E-01  0 -0.4445E-02  0 -0.2539E-02  0 -0.3326E-02
   (  1, 19,  3)  (  1, 22,  4)  (  1, 32,  1)  (  1, 29,  5)  (  1,  9,  4)
  0  0.1871E-02  0  0.2029E-02  0  0.5929E-03  0  0.3859E-03  0  0.1519E-03
   (  1, 10,  4)  (  1, 20,  4)  (  1, 31,  5)  (  1, 26,  7)  (  1, 11,  3)
  0 -0.1415E-03  0  0.9428E-04  0  0.9923E-04  0 -0.8373E-04  0  0.5430E-04
   (  1, 11,  3)  (  1, 11,  3)  (  1, 10,  4)  (  1, 11,  3)  (  1, 16,  4)
  0 -0.3836E-04  0  0.1929E-04  0 -0.7058E-05  1  0.4686E-01  0  0.2909E-01
   (  1, 12,  2)  (  1, 14,  2)  (  1, 33, 11)  (  1,  9,  4)  (  1, 12,  2)
  0 -0.2593E-01  0 -0.2063E-01  0  0.9219E-02  0  0.8275E-02  0  0.2294E-02
   (  1, 15,  4)  (  1,  8,  5)  (  1,  1,  3)  (  1, 19,  3)  (  1, 24,  1)
  0  0.1583E-02  0  0.1521E-02  0 -0.1058E-02  0  0.7575E-03  0  0.5086E-03
   (  1, 31,  5)  (  1, 21,  4)  (  1,  9,  4)  (  1, 27,  1)  (  1, 20,  3)
  0  0.2175E-03  0 -0.1515E-03  0  0.6472E-04  0  0.5932E-04  0 -0.4619E-04
   (  1,  1,  1)  (  1, 11,  3)  (  1, 11,  3)  (  1, 13,  4)  (  1, 12,  2)
  0 -0.2236E-04  0  0.3217E-04  0 -0.1574E-04  0  0.6779E-05  1  0.1580E-01
   (  1,  9,  4)  (  1, 10,  4)  (  1, 11,  3)  (  1, 34,  3)  (  1,  9,  4)
  0  0.7479E-02  0 -0.6239E-02  0  0.4915E-02  0 -0.2538E-02  0  0.2740E-02
   (  1,  8,  5)  (  1, 11, 11)  (  1, 15,  4)  (  1, 12,  2)  (  1, 18,  3)
  0 -0.7250E-03  0  0.5052E-03  0  0.5687E-03  0 -0.3771E-03  0  0.2333E-03
   (  1, 31,  5)  (  1, 31,  5)  (  1, 21,  4)  (  1,  9,  4)  (  1,  3,  1)
  0  0.9789E-04  0  0.7224E-04  0 -0.4356E-04  0  0.1830E-04  0 -0.1144E-04
   (  1, 22,  3)  (  1, 11,  3)  (  1, 11,  3)  (  1, 11,  3)  (  1, 26,  6)
  0  0.1325E-04  0 -0.1115E-04  0  0.5913E-05  1  0.3432E-02  0  0.3421E-02
   (  1, 11,  3)  (  1,  9,  4)  (  1,  6,  1)  (  1,  8,  5)  (  1,  9,  4)
  0 -0.1782E-02  0 -0.1945E-02  0  0.6779E-03  0  0.3935E-03  0 -0.2197E-03
   (  1,  9,  4)  (  1, 13,  3)  (  1,  2,  2)  (  1, 27,  2)  (  1, 31,  5)
  0  0.1449E-03  0  0.1303E-03  0  0.8941E-04  0 -0.6139E-04  0  0.2531E-04
   (  1, 31,  5)  (  1, 21,  4)  (  1,  9,  4)  (  1,  9,  4)  (  1, 18,  3)
  0  0.2826E-04  0 -0.1288E-04  0  0.7461E-05  1 -0.6746E-03  0  0.9331E-03
   (  1, 11,  3)  (  1, 11,  3)  (  1, 11, 11)  (  1, 10,  4)  (  1,  9,  4)
  0  0.8843E-03  0 -0.5201E-03  0  0.2120E-03  0  0.1062E-03  0  0.8954E-04
   (  1, 12,  2)  (  1, 14,  4)  (  1,  7,  4)  (  1,  1,  5)  (  1, 21,  4)
  0  0.5926E-04  0  0.2415E-04  0 -0.2462E-04  0  0.2399E-04  0 -0.1028E-04
   (  1, 31,  5)  (  1,  9,  4)  (  1,  9,  4)  (  1, 11,  3)  (  1, 11,  3)
  0  0.6096E-05  1 -0.2350E-03  0  0.1803E-03  0  0.2261E-03  0 -0.1228E-03
   (  1, 11,  3)  (  1,  9,  4)  (  1,  9,  4)  (  1, 12,  2)  (  1, 15,  4)
  0  0.7110E-04  0 -0.3337E-04  0  0.2748E-04  0  0.1886E-04  0 -0.7977E-05
   (  1,  7,  4)  (  1, 19,  3)  (  1, 21,  4)  (  1, 31,  5)  (  1, 11, 11)
  1 -0.7410E-04  0 -0.4115E-04  0  0.5785E-04  0 -0.2965E-04  0  0.1802E-04
   (  1,  9,  4)  (  1, 12,  2)  (  1, 12,  2)  (  1, 15,  4)  (  1,  8,  5)
  0 -0.1036E-04  0  0.7552E-05  1 -0.2243E-04  0 -0.1511E-04  0  0.1706E-04
   (  1, 18,  3)  (  1, 21,  4)  (  1,  9,  4)  (  1, 18,  3)  (  1, 12,  2)
  0 -0.8430E-05  1 -0.8588E-05
   (  1, 15,  4)  (  1,  9,  4)

 MAXIMUM RESIDUAL FOR EACH ITERATION (1 INDICATES THE FIRST INNER ITERATION):

    RESIDUAL       RESIDUAL       RESIDUAL       RESIDUAL       RESIDUAL    
   LAYER,ROW,COL  LAYER,ROW,COL  LAYER,ROW,COL  LAYER,ROW,COL  LAYER,ROW,COL
 ---------------------------------------------------------------------------
  1   91.31      0   95.48      0   75.53      0   71.35      0  -37.81    
   (  1,  6,  4)  (  1, 26, 11)  (  1, 26, 11)  (  1,  1, 12)  (  1,  5, 13)
  0  -27.95      0  -25.89      0   11.09      0   8.950      0  -8.286    
   (  1, 31,  5)  (  1, 32,  4)  (  1,  3, 15)  (  1,  3, 15)  (  1, 29, 11)
  0   5.026      0   3.099      0   1.612      0   1.019      0  0.6431    
   (  1,  3, 15)  (  1,  3, 15)  (  1,  3, 15)  (  1,  3, 15)  (  1, 19, 15)
  0  0.4261      0  0.3792      0  0.2390      0  0.1412      0  0.9793E-01
   (  1, 19, 15)  (  1, 19, 15)  (  1, 19, 15)  (  1, 19, 15)  (  1, 19, 15)
  0  0.5636E-01  0  0.3111E-01  0  0.1978E-01  0  0.1453E-01  0  0.1132E-01
   (  1, 19, 15)  (  1, 19, 15)  (  1, 19, 15)  (  1, 19, 15)  (  1, 19, 15)
  1   26.11      0   16.66      0   13.66      0   10.38      0   7.692    
   (  1, 26, 11)  (  1, 26, 11)  (  1,  1, 12)  (  1,  4, 14)  (  1,  7, 15)
  0   5.583      0   3.091      0   2.324      0   1.677      0   1.208    
   (  1,  7, 15)  (  1, 29, 11)  (  1,  3, 15)  (  1,  3, 15)  (  1,  3, 15)
  0   1.092      0  0.6409      0  0.3451      0  0.2404      0  0.1431    
   (  1,  3, 15)  (  1,  3, 15)  (  1, 19, 15)  (  1, 19, 15)  (  1, 19, 15)
  0  0.6997E-01  0  0.4251E-01  0  0.2740E-01  0  0.2055E-01  0  0.1737E-01
   (  1, 19, 15)  (  1, 19, 15)  (  1,  3, 15)  (  1,  3, 15)  (  1,  3, 15)
  0  0.9418E-02  0  0.6274E-02  0  0.3419E-02  0  0.1990E-02  0  0.8568E-03
   (  1,  3, 15)  (  1, 19, 15)  (  1, 19, 15)  (  1, 19, 15)  (  1, 19, 15)
  1  -5.440      0  -4.016      0  -3.435      0   3.111      0   2.348    
   (  1, 29,  6)  (  1, 29,  6)  (  1, 38, 13)  (  1, 27, 15)  (  1, 27, 15)
  0   1.624      0  0.9254      0  0.6130      0  0.4245      0  0.3885    
   (  1,  7, 15)  (  1,  7, 15)  (  1,  7, 15)  (  1,  3, 15)  (  1,  3, 15)
  0  0.2613      0  0.1564      0  0.9587E-01  0  0.5946E-01  0  0.3529E-01
   (  1,  3, 15)  (  1,  3, 15)  (  1,  3, 15)  (  1, 19, 15)  (  1, 19, 15)
  0  0.2131E-01  0  0.1163E-01  0  0.9284E-02  0  0.6768E-02  0  0.4111E-02
   (  1, 19, 15)  (  1, 27, 15)  (  1,  3, 15)  (  1,  3, 15)  (  1,  3, 15)
  0  0.3171E-02  0  0.1797E-02  0  0.9987E-03  1  -1.927      0  -1.582    
   (  1,  3, 15)  (  1, 19, 15)  (  1, 19, 15)  (  1, 26, 10)  (  1, 26, 10)
  0  -1.154      0  0.9597      0  0.7011      0  0.4721      0  0.2863    
   (  1, 26, 10)  (  1, 27, 15)  (  1, 27, 15)  (  1,  7, 15)  (  1,  7, 15)
  0  0.1979      0  0.1251      0  0.1111      0  0.6700E-01  0  0.5082E-01
   (  1,  7, 15)  (  1,  7, 15)  (  1,  7, 15)  (  1,  3, 15)  (  1, 27, 10)
  0  0.2440E-01  0  0.1392E-01  0  0.9366E-02  0  0.6131E-02  0  0.4586E-02
   (  1,  3, 15)  (  1,  3, 15)  (  1, 27, 15)  (  1, 27, 15)  (  1, 27, 15)
  0  0.3464E-02  0  0.2916E-02  0  0.1787E-02  0  0.8776E-03  1 -0.6346    
   (  1, 27, 15)  (  1, 27, 15)  (  1, 27, 15)  (  1, 27, 15)  (  1, 26, 10)
  0 -0.5253      0 -0.3129      0  0.2800      0  0.2011      0  0.1377    
   (  1, 26, 10)  (  1, 26, 10)  (  1, 27, 15)  (  1, 27, 15)  (  1, 31,  5)
  0  0.8914E-01  0  0.6081E-01  0  0.3785E-01  0  0.3172E-01  0  0.1737E-01
   (  1,  7, 15)  (  1,  7, 15)  (  1,  7, 15)  (  1,  7, 15)  (  1,  3, 15)
  0  0.1445E-01  0  0.6404E-02  0  0.3702E-02  0  0.2862E-02  0  0.1776E-02
   (  1, 27, 10)  (  1, 29, 11)  (  1, 27, 15)  (  1, 27, 15)  (  1, 27, 15)
  0  0.1435E-02  0  0.1088E-02  0  0.5979E-03  1 -0.1845      0 -0.1509    
   (  1, 27, 15)  (  1, 27, 15)  (  1, 27, 15)  (  1, 26, 10)  (  1, 26, 10)
  0 -0.1078      0  0.8980E-01  0  0.5865E-01  0  0.3984E-01  0  0.2812E-01
   (  1, 26, 10)  (  1, 37, 15)  (  1, 27, 15)  (  1, 31,  5)  (  1,  7, 15)
  0  0.1704E-01  0  0.9665E-02  0  0.8155E-02  0  0.4800E-02  0  0.2862E-02
   (  1,  7, 15)  (  1,  7, 15)  (  1,  7, 15)  (  1,  7, 15)  (  1,  3, 15)
  0  0.1595E-02  0  0.1104E-02  0  0.7869E-03  1 -0.6580E-01  0 -0.5365E-01
   (  1,  3, 15)  (  1, 27, 15)  (  1, 27, 15)  (  1, 26, 10)  (  1, 26, 10)
  0  0.4039E-01  0  0.2746E-01  0  0.1898E-01  0  0.1208E-01  0  0.8837E-02
   (  1, 27, 10)  (  1, 37, 15)  (  1, 27, 15)  (  1,  7, 15)  (  1,  7, 15)
  0  0.5528E-02  0  0.3216E-02  0  0.2887E-02  0  0.1540E-02  0  0.8805E-03
   (  1,  7, 15)  (  1,  7, 15)  (  1,  7, 15)  (  1,  7, 15)  (  1,  7, 15)
  0  0.4696E-03  1 -0.2021E-01  0 -0.1636E-01  0  0.1252E-01  0  0.8321E-02
   (  1, 27, 10)  (  1, 26, 10)  (  1, 26, 10)  (  1, 27, 10)  (  1, 37, 15)
  0  0.6275E-02  0  0.3778E-02  0  0.2746E-02  0  0.1756E-02  0  0.1006E-02
   (  1, 27, 15)  (  1,  7, 15)  (  1,  7, 15)  (  1,  7, 15)  (  1,  7, 15)
  1 -0.6102E-02  0 -0.4894E-02  0  0.3297E-02  0  0.2629E-02  0  0.2107E-02
   (  1, 26, 10)  (  1, 26, 10)  (  1, 27, 10)  (  1, 27, 15)  (  1, 27, 15)
  0  0.1186E-02  0  0.8319E-03  1 -0.1987E-02  0 -0.1547E-02  0  0.1259E-02
   (  1, 27, 15)  (  1,  7, 15)  (  1, 26, 10)  (  1, 26, 10)  (  1, 27, 15)
  0  0.9448E-03  1  0.1131E-02
   (  1, 37, 15)  (  1, 27, 15)



 OUTPUT CONTROL FOR STRESS PERIOD    3   TIME STEP    1
    SAVE HEAD FOR ALL LAYERS
    SAVE BUDGET
 UBDSV2 SAVING "   CONSTANT HEAD" ON UNIT  53 AT TIME STEP  1, STRESS PERIOD   3
 UBDSV1 SAVING "FLOW RIGHT FACE " ON UNIT  53 AT TIME STEP  1, STRESS PERIOD   3
 UBDSV1 SAVING "FLOW FRONT FACE " ON UNIT  53 AT TIME STEP  1, STRESS PERIOD   3

 HEAD WILL BE SAVED ON UNIT   51 AT END OF TIME STEP    1, STRESS PERIOD    3
1
  VOLUMETRIC BUDGET FOR ENTIRE MODEL AT END OF TIME STEP    1, STRESS PERIOD   3
  ------------------------------------------------------------------------------

     CUMULATIVE VOLUMES      L**3       RATES FOR THIS TIME STEP      L**3/T
     ------------------                 ------------------------

           IN:                                      IN:
           ---                                      ---
             STORAGE =     4110281.5000               STORAGE =           0.0000
       CONSTANT HEAD =          10.4724         CONSTANT HEAD =          10.4724
               WELLS =     1153721.5000                 WELLS =         631.4977
       RIVER LEAKAGE =       82157.7500         RIVER LEAKAGE =         129.9998
            RECHARGE =     3806184.7500              RECHARGE =        2081.2354

            TOTAL IN =     9152356.0000              TOTAL IN =        2853.2051

          OUT:                                     OUT:
          ----                                     ----
             STORAGE =           0.0000               STORAGE =           0.0000
       CONSTANT HEAD =      581997.6250         CONSTANT HEAD =         119.2860
               WELLS =           0.0000                 WELLS =           0.0000
       RIVER LEAKAGE =     8570401.0000         RIVER LEAKAGE =        2733.9526
            RECHARGE =           0.0000              RECHARGE =           0.0000

           TOTAL OUT =     9152399.0000             TOTAL OUT =        2853.2388

            IN - OUT =         -43.0000              IN - OUT =      -3.3691E-02

 PERCENT DISCREPANCY =          -0.00     PERCENT DISCREPANCY =          -0.00






         TIME SUMMARY AT END OF TIME STEP    1 IN STRESS PERIOD    3
                    SECONDS     MINUTES      HOURS       DAYS        YEARS
                    -----------------------------------------------------------
   TIME STEP LENGTH  86400.      1440.0      24.000      1.0000     2.73785E-03
 STRESS PERIOD TIME  86400.      1440.0      24.000      1.0000     2.73785E-03
         TOTAL TIME 1.57853E+08 2.63088E+06  43848.      1827.0      5.0021    
1

 Run end date and time (yyyy/mm/dd hh:mm:ss): 2016/06/22 16:20:57
 Elapsed run time:  0.023 Seconds

