                                  MODFLOW-NWT-SWR1 
      U.S. GEOLOGICAL SURVEY MODULAR FINITE-DIFFERENCE GROUNDWATER-FLOW MODEL
                            VERSION 1.0.9 07/01/2014
                    BASED ON MODFLOW-2005 VERSION 1.11.00 08/30/2013

 LIST FILE: freyberg.list
                         UNIT    2

 OPENING freyberg.dis
 FILE TYPE:DIS   UNIT   11   STATUS:OLD    
 FORMAT:FORMATTED              ACCESS:SEQUENTIAL          

 OPENING freyberg.upw
 FILE TYPE:LPF   UNIT   31   STATUS:OLD    
 FORMAT:FORMATTED              ACCESS:SEQUENTIAL          

 OPENING freyberg.bas
 FILE TYPE:BAS6   UNIT   13   STATUS:OLD    
 FORMAT:FORMATTED              ACCESS:SEQUENTIAL          

 OPENING freyberg.rch
 FILE TYPE:RCH   UNIT   19   STATUS:OLD    
 FORMAT:FORMATTED              ACCESS:SEQUENTIAL          

 OPENING freyberg.wel
 FILE TYPE:WEL   UNIT   20   STATUS:OLD    
 FORMAT:FORMATTED              ACCESS:SEQUENTIAL          

 OPENING freyberg.riv
 FILE TYPE:RIV   UNIT   18   STATUS:OLD    
 FORMAT:FORMATTED              ACCESS:SEQUENTIAL          

 OPENING freyberg.oc
 FILE TYPE:OC   UNIT   14   STATUS:OLD    
 FORMAT:FORMATTED              ACCESS:SEQUENTIAL          

 OPENING freyberg.hds
 FILE TYPE:DATA   UNIT   51   STATUS:REPLACE
 FORMAT:FORMATTED              ACCESS:SEQUENTIAL          

 OPENING freyberg.ddn
 FILE TYPE:DATA(BINARY)   UNIT   52   STATUS:REPLACE
 FORMAT:UNFORMATTED            ACCESS:STREAM              

 OPENING freyberg.cbc
 FILE TYPE:DATA(BINARY)   UNIT   53   STATUS:REPLACE
 FORMAT:UNFORMATTED            ACCESS:STREAM              

 OPENING freyberg.pcg
 FILE TYPE:PCG   UNIT   32   STATUS:OLD    
 FORMAT:FORMATTED              ACCESS:SEQUENTIAL          

 BAS -- BASIC PACKAGE, VERSION 7, 5/2/2005 INPUT READ FROM UNIT   13

 MODFLOW was compiled using mixed precision
 Precision of REAL variables:           6
 Precision of DOUBLE PRECISION variables:          15

 DISCRETIZATION INPUT DATA READ FROM UNIT   11
 # Discretization file for MODFLOW, generated by Flopy.
    1 LAYERS        40 ROWS        20 COLUMNS
    3 STRESS PERIOD(S) IN SIMULATION
 MODEL TIME UNIT IS DAYS
 MODEL LENGTH UNIT IS METERS
  Confining bed flag for each layer:
   0



                               DELR
 READING ON UNIT   11 WITH FORMAT: (20G15.6)           



                               DELC
 READING ON UNIT   11 WITH FORMAT: (40G15.6)           

 TOP ELEVATION OF LAYER 1 =   35.0000    

 OPENING FILE ON UNIT   99:
 botm.ref                                                                                                                                                                                                



             MODEL LAYER BOTTOM EL. FOR LAYER   1
 READING ON UNIT   99 WITH FORMAT: (10E12.4)           


 STRESS PERIOD     LENGTH       TIME STEPS     MULTIPLIER FOR DELT    SS FLAG
 ----------------------------------------------------------------------------
        1         1.000000          1                    1.000         SS
        2         1825.000          1                    1.000         TR
        3         1.000000          1                    1.000         SS

 COMBINED STEADY-STATE AND TRANSIENT SIMULATION




 # Basic package file for MODFLOW, generated by Flopy.                           
 THE FREE FORMAT OPTION HAS BEEN SELECTED

 OPENING FILE ON UNIT   99:
 ibound.ref                                                                                                                                                                                              



                     BOUNDARY ARRAY FOR LAYER   1
 READING ON UNIT   99 WITH FORMAT: (25I3)              

 AQUIFER HEAD WILL BE SET TO  -999.99     AT ALL NO-FLOW NODES (IBOUND=0).

 OPENING FILE ON UNIT   99:
 strt.ref                                                                                                                                                                                                



                       INITIAL HEAD FOR LAYER   1
 READING ON UNIT   99 WITH FORMAT: (10E12.4)           
 # Output control package file for MODFLOW, generated by Flopy.

 OUTPUT CONTROL IS SPECIFIED ONLY AT TIME STEPS FOR WHICH OUTPUT IS DESIRED
 HEADS WILL BE SAVED WITH FORMAT: (20E15.6)           
 COMPACT CELL-BY-CELL BUDGET FILES WILL BE WRITTEN
 AUXILIARY DATA WILL BE SAVED IN CELL-BY-CELL BUDGET FILES
 HEAD PRINT FORMAT CODE IS   0    DRAWDOWN PRINT FORMAT CODE IS   0
 HEADS WILL BE SAVED ON UNIT   51    DRAWDOWNS WILL BE SAVED ON UNIT   52

 LPF -- LAYER-PROPERTY FLOW PACKAGE, VERSION 7, 5/2/2005
         INPUT READ FROM UNIT   31
 # UPW for MODFLOW-NWT, generated by Flopy.
 CELL-BY-CELL FLOWS WILL BE SAVED ON UNIT   53
 HEAD AT CELLS THAT CONVERT TO DRY= -1.00000E+30
 No named parameters

   LAYER FLAGS:
 LAYER       LAYTYP        LAYAVG         CHANI        LAYVKA        LAYWET
 ---------------------------------------------------------------------------
    1             1             0     1.000E+00             0             0

   INTERPRETATION OF LAYER FLAGS:
                        INTERBLOCK     HORIZONTAL    DATA IN
         LAYER TYPE   TRANSMISSIVITY   ANISOTROPY   ARRAY VKA   WETTABILITY
 LAYER      (LAYTYP)      (LAYAVG)       (CHANI)      (LAYVKA)      (LAYWET)
 ---------------------------------------------------------------------------
    1   CONVERTIBLE      HARMONIC     1.000E+00    VERTICAL K  NON-WETTABLE

 WETTING CAPABILITY IS NOT ACTIVE IN ANY LAYER

 OPENING FILE ON UNIT   99:
 hk_Layer_1.ref                                                                                                                                                                                          



              HYD. COND. ALONG ROWS FOR LAYER   1
 READING ON UNIT   99 WITH FORMAT: (20G15.6)           

      VERTICAL HYD. COND. =   1.00000     FOR LAYER   1

 OPENING FILE ON UNIT   99:
 ss_Layer_1.ref                                                                                                                                                                                          



                   SPECIFIC STORAGE FOR LAYER   1
 READING ON UNIT   99 WITH FORMAT: (20G15.6)           

           SPECIFIC YIELD =  5.995921E-02 FOR LAYER   1

 WEL -- WELL PACKAGE, VERSION 1.0.6, 12/05/2012 INPUT READ FROM UNIT   20
 # Well file for MODFLOW, generated by Flopy.
 No named parameters
 MAXIMUM OF      6 ACTIVE WELLS AT ONE TIME
 No named parameters


     0 Well parameters

 RIV -- RIVER PACKAGE, VERSION 7, 5/2/2005 INPUT READ FROM UNIT   18
 # RIV for MODFLOW, generated by Flopy.
 No named parameters
 MAXIMUM OF     40 ACTIVE RIVER REACHES AT ONE TIME


     0 River parameters

 RCH -- RECHARGE PACKAGE, VERSION 7, 5/2/2005 INPUT READ FROM UNIT   19
 # RCH for MODFLOW, generated by Flopy.
 No named parameters
 OPTION 3 -- RECHARGE TO HIGHEST ACTIVE NODE IN EACH VERTICAL COLUMN


     0 Recharge parameters

 PCG -- CONJUGATE-GRADIENT SOLUTION PACKAGE, VERSION 7, 5/2/2005
 MAXIMUM OF    100 CALLS OF SOLUTION ROUTINE
 MAXIMUM OF     25 INTERNAL ITERATIONS PER CALL TO SOLUTION ROUTINE
 MATRIX PRECONDITIONING TYPE :    1
 IHCOFADD option -- When an active cell is surrounded by dry cells, convert
 the cell to dry only if storage and head-dependent boundary flow are 0.



                                    SOLUTION BY THE CONJUGATE-GRADIENT METHOD
                                   -------------------------------------------
                    MAXIMUM NUMBER OF CALLS TO PCG ROUTINE =      100
                        MAXIMUM ITERATIONS PER CALL TO PCG =       25
                               MATRIX PRECONDITIONING TYPE =        1
        RELAXATION FACTOR (ONLY USED WITH PRECOND. TYPE 1) =    0.10000E+01
 PARAMETER OF POLYNOMIAL PRECOND. = 2 (2) OR IS CALCULATED :        2
                         HEAD CHANGE CRITERION FOR CLOSURE =    0.10000E-04
                     RESIDUAL CHANGE CRITERION FOR CLOSURE =    0.10000E+00
            PCG HEAD AND RESIDUAL CHANGE PRINTOUT INTERVAL =        5
     PRINTING FROM SOLVER IS LIMITED(1) OR SUPPRESSED (>1) =        0
                            STEADY-STATE DAMPING PARAMETER =    0.70000E+00
                               TRANSIENT DAMPING PARAMETER =    0.70000E+00
1
                            STRESS PERIOD NO.    1, LENGTH =   1.000000    
                            -----------------------------------------------

                              NUMBER OF TIME STEPS =     1

                               MULTIPLIER FOR DELT =     1.000

                            INITIAL TIME STEP SIZE =   1.000000    

 WELL NO.  LAYER   ROW   COL   STRESS RATE         
 --------------------------------------------------
      1      1      9     16       105.1    
      2      1     11     13       104.5    
      3      1     20     14       97.81    
      4      1     26     10       99.36    
      5      1     29      6       98.30    
      6      1     34     12       92.06    

      6 WELLS

 REACH NO.  LAYER   ROW   COL     STAGE      CONDUCTANCE     BOTTOM EL.         
 -------------------------------------------------------------------------------
      1      1      1     15       20.10           3161.           20.00    
      2      1      2     15       19.87           9861.           19.75    
      3      1      3     15       19.65          0.1308E+05       19.50    
      4      1      4     15       19.42          0.1317E+05       19.25    
      5      1      5     15       19.19           7324.           19.00    
      6      1      6     15       18.97           4488.           18.75    
      7      1      7     15       18.74           2319.           18.50    
      8      1      8     15       18.51           1444.           18.25    
      9      1      9     15       18.28           4658.           18.00    
     10      1     10     15       19.06          0.1911E+05       17.75    
     11      1     11     15       17.83           6090.           17.50    
     12      1     12     15       17.60           9554.           17.25    
     13      1     13     15       17.38           1293.           17.00    
     14      1     14     15       17.15           2076.           16.75    
     15      1     15     15       16.92          0.2163E+05       16.50    
     16      1     16     15       16.70           3582.           16.25    
     17      1     17     15       16.47           4882.           16.00    
     18      1     18     15       16.24           2034.           15.75    
     19      1     19     15       16.02           5893.           15.50    
     20      1     20     15       15.79          0.9769E+05       15.25    
     21      1     21     15       15.56          0.1943E+05       15.00    
     22      1     22     15       15.33           7005.           14.75    
     23      1     23     15       15.11          0.1010E+05       14.50    
     24      1     24     15       14.88           605.2           14.25    
     25      1     25     15       14.65           4659.           14.00    
     26      1     26     15       14.43          0.1645E+05       13.75    
     27      1     27     15       14.20           141.5           13.50    
     28      1     28     15       13.97          0.1544E+05       13.25    
     29      1     29     15       13.75           8559.           13.00    
     30      1     30     15       13.52          0.1265E+05       12.75    
     31      1     31     15       13.29           2126.           12.50    
     32      1     32     15       13.07           1237.           12.25    
     33      1     33     15       12.84           2347.           12.00    
     34      1     34     15       12.61           1261.           11.75    
     35      1     35     15       12.38           7509.           11.50    
     36      1     36     15       12.16           4267.           11.25    
     37      1     37     15       11.93           8219.           11.00    
     38      1     38     15       11.70           5078.           10.75    
     39      1     39     15       11.48           7593.           10.50    
     40      1     40     15       11.25           1815.           10.25    

     40 RIVER REACHES

 OPENING FILE ON UNIT   99:
 rech_0.ref                                                                                                                                                                                              



                           RECHARGE
 READING ON UNIT   99 WITH FORMAT: (20G15.6)           

 SOLVING FOR HEAD 


    16 CALLS TO PCG ROUTINE FOR TIME STEP   1 IN STRESS PERIOD    1
   235 TOTAL ITERATIONS

 MAXIMUM HEAD CHANGE FOR EACH ITERATION (1 INDICATES THE FIRST INNER ITERATION):

    HEAD CHANGE    HEAD CHANGE    HEAD CHANGE    HEAD CHANGE    HEAD CHANGE 
   LAYER,ROW,COL  LAYER,ROW,COL  LAYER,ROW,COL  LAYER,ROW,COL  LAYER,ROW,COL
 ---------------------------------------------------------------------------
  1  -56.21      0  -57.47      0   18.89      0   11.04      0  -2.870    
   (  1, 39, 12)  (  1,  9,  4)  (  1, 31,  1)  (  1, 39, 12)  (  1, 20,  3)
  0   2.307      0  0.7545      0 -0.5758      0 -0.4042      0  0.2994    
   (  1, 37, 13)  (  1, 38, 13)  (  1, 18,  2)  (  1, 26,  4)  (  1,  9,  4)
  0 -0.3073      0 -0.1214      0  0.8571E-01  0 -0.3237E-01  0 -0.1567E-01
   (  1, 16,  4)  (  1, 27,  1)  (  1, 17,  4)  (  1, 19,  4)  (  1,  4, 14)
  0  0.1621E-01  0  0.6118E-02  0 -0.3950E-02  0  0.3537E-02  0 -0.1815E-02
   (  1, 18,  4)  (  1,  1, 20)  (  1,  9,  1)  (  1,  9,  4)  (  1,  9,  8)
  0  0.6351E-03  0 -0.4863E-03  0  0.1345E-03  0  0.7376E-04  0 -0.6915E-04
   (  1,  1, 20)  (  1,  1, 20)  (  1,  3, 10)  (  1,  1, 20)  (  1,  9,  4)
  1   25.31      0  -24.60      0  -5.283      0   2.921      0  0.9091    
   (  1,  9,  4)  (  1,  9,  4)  (  1, 21,  4)  (  1, 39, 12)  (  1,  8,  5)
  0  0.5827      0 -0.3259      0 -0.2603      0 -0.8890E-01  0 -0.9649E-01
   (  1, 39,  8)  (  1, 17,  4)  (  1, 30,  5)  (  1, 26,  4)  (  1, 12,  4)
  0  0.6230E-01  0 -0.4044E-01  0 -0.2273E-01  0  0.9042E-02  0 -0.4508E-02
   (  1,  9,  4)  (  1, 30,  6)  (  1, 27,  1)  (  1,  1, 20)  (  1,  4, 14)
  0  0.5090E-02  0  0.2070E-02  0  0.8057E-03  0  0.7190E-03  0 -0.7906E-03
   (  1, 17,  4)  (  1,  1, 20)  (  1, 39, 13)  (  1,  9,  4)  (  1,  1, 20)
  0  0.3565E-03  0 -0.1468E-03  0 -0.1689E-03  0  0.1045E-03  0 -0.4847E-04
   (  1,  1, 20)  (  1,  9,  8)  (  1,  1, 20)  (  1,  1, 20)  (  1,  1, 20)
  1   18.45      0  -14.11      0  -3.188      0  -1.197      0 -0.5566    
   (  1,  9,  4)  (  1,  9,  4)  (  1, 21,  4)  (  1,  8,  5)  (  1, 20,  3)
  0 -0.2315      0 -0.1555      0 -0.1370      0  0.4108E-01  0 -0.2679E-01
   (  1, 31,  1)  (  1,  8,  5)  (  1, 30,  5)  (  1, 38, 13)  (  1, 18,  4)
  0  0.1960E-01  0 -0.1437E-01  0 -0.6638E-02  0 -0.3976E-02  0 -0.2149E-02
   (  1,  9,  1)  (  1,  9,  4)  (  1, 27,  7)  (  1, 27, 12)  (  1, 24, 14)
  0 -0.1937E-02  0 -0.6368E-03  0  0.4347E-03  0  0.2005E-03  0 -0.2133E-03
   (  1, 22,  8)  (  1, 17,  4)  (  1,  1, 20)  (  1, 39, 13)  (  1, 17,  4)
  0  0.1984E-03  0  0.8271E-04  0 -0.6791E-04  0  0.4190E-04  0 -0.2400E-04
   (  1,  9,  4)  (  1,  1, 20)  (  1,  1, 20)  (  1,  1, 20)  (  1,  1, 20)
  1   1.825      0 -0.8144      0  -1.055      0 -0.5387      0 -0.2389    
   (  1, 26, 10)  (  1,  8,  5)  (  1,  9,  4)  (  1, 27,  1)  (  1, 21,  4)
  0 -0.1101      0 -0.5275E-01  0 -0.4854E-01  0 -0.1684E-01  0  0.7344E-02
   (  1, 31,  1)  (  1,  8,  5)  (  1, 20,  3)  (  1, 33,  6)  (  1, 27,  1)
  0 -0.9842E-02  0  0.8264E-02  0 -0.2991E-02  0 -0.1739E-02  0  0.1489E-02
   (  1,  9,  4)  (  1,  9,  1)  (  1,  2, 13)  (  1,  3, 10)  (  1,  1, 20)
  0 -0.6129E-03  0 -0.2607E-03  0  0.2489E-03  0 -0.1374E-03  0 -0.1691E-03
   (  1,  1, 20)  (  1,  7, 12)  (  1,  1, 20)  (  1,  9,  4)  (  1,  1, 20)
  0 -0.5854E-04  0  0.3817E-04  0 -0.3376E-04  0  0.1626E-04  0 -0.4812E-05
   (  1, 17,  4)  (  1,  1, 20)  (  1,  1, 20)  (  1,  1, 20)  (  1,  1, 20)
  1  -1.117      0   1.436      0 -0.3764      0 -0.1898      0 -0.9270E-01
   (  1,  9,  4)  (  1,  9,  4)  (  1, 23,  9)  (  1, 24, 14)  (  1, 31,  1)
  0 -0.5171E-01  0  0.2150E-01  0 -0.1502E-01  0 -0.8017E-02  0  0.4256E-02
   (  1, 18,  4)  (  1, 19,  4)  (  1, 22,  4)  (  1,  9,  8)  (  1,  1, 20)
  0  0.3877E-02  0 -0.2321E-02  0 -0.2186E-02  0  0.6879E-03  0  0.8417E-03
   (  1,  9,  4)  (  1,  9,  4)  (  1,  1, 20)  (  1, 31,  1)  (  1,  1, 20)
  0 -0.3702E-03  0 -0.9702E-04  0  0.8441E-04  0 -0.5331E-04  0 -0.3958E-04
   (  1,  1, 20)  (  1,  4,  8)  (  1,  1, 20)  (  1,  1, 20)  (  1,  9,  3)
  0  0.2471E-04  0  0.5914E-05  1 -0.5273      0  0.5590      0 -0.1383    
   (  1,  1, 20)  (  1,  3, 10)  (  1,  9,  4)  (  1,  9,  4)  (  1, 23, 10)
  0 -0.7516E-01  0 -0.3219E-01  0 -0.1743E-01  0 -0.8254E-02  0 -0.4544E-02
   (  1, 24, 14)  (  1, 25, 11)  (  1,  9,  8)  (  1, 36,  5)  (  1, 22,  4)
  0 -0.2316E-02  0 -0.1318E-02  0  0.1238E-02  0  0.6458E-03  0 -0.3800E-03
   (  1,  9,  8)  (  1, 29, 11)  (  1,  9,  4)  (  1,  6,  5)  (  1,  9,  8)
  0  0.2156E-03  0 -0.1091E-03  0 -0.7580E-04  0 -0.4560E-04  0 -0.2166E-04
   (  1, 31,  1)  (  1, 35,  6)  (  1, 34, 11)  (  1, 37,  5)  (  1, 37,  5)
  0 -0.1182E-04  0 -0.9641E-05  1 -0.1408      0  0.1419      0 -0.4308E-01
   (  1, 18,  4)  (  1,  9,  4)  (  1,  9,  4)  (  1,  9,  4)  (  1, 23, 10)
  0 -0.2616E-01  0 -0.1225E-01  0 -0.5663E-02  0 -0.2841E-02  0 -0.1415E-02
   (  1, 24, 14)  (  1, 25, 11)  (  1, 28,  6)  (  1, 36,  5)  (  1, 36,  5)
  0 -0.7365E-03  0  0.6684E-03  0 -0.5119E-03  0 -0.2053E-03  0  0.1328E-03
   (  1, 21, 10)  (  1,  9,  4)  (  1,  9,  4)  (  1, 37,  7)  (  1, 33,  6)
  0 -0.5792E-04  0 -0.3581E-04  0 -0.2165E-04  0  0.1240E-04  0 -0.6647E-05
   (  1, 36,  9)  (  1, 19,  4)  (  1,  9,  8)  (  1, 17,  4)  (  1, 37,  5)
  1  0.2764E-01  0  0.2642E-01  0 -0.1326E-01  0 -0.8679E-02  0 -0.4260E-02
   (  1, 24, 14)  (  1,  9,  4)  (  1,  4, 14)  (  1, 24, 14)  (  1, 26, 12)
  0 -0.1881E-02  0 -0.9517E-03  0 -0.3858E-03  0 -0.3051E-03  0  0.1649E-03
   (  1, 28,  5)  (  1, 31,  1)  (  1, 22,  4)  (  1, 21, 10)  (  1,  8,  5)
  0  0.1836E-03  0  0.9470E-04  0  0.3954E-04  0  0.3639E-04  0 -0.1374E-04
   (  1,  9,  4)  (  1, 27,  1)  (  1, 17,  4)  (  1, 19,  4)  (  1, 19,  4)
  0 -0.8315E-05  1  0.9576E-02  0 -0.8128E-02  0  0.5129E-02  0 -0.2864E-02
   (  1, 33,  6)  (  1, 24, 14)  (  1,  9,  4)  (  1,  9,  4)  (  1, 24, 14)
  0 -0.1126E-02  0 -0.6278E-03  0 -0.3266E-03  0 -0.1131E-03  0 -0.1055E-03
   (  1, 21,  4)  (  1, 27,  1)  (  1, 31,  1)  (  1,  9,  8)  (  1, 21, 10)
  0  0.5188E-04  0  0.4847E-04  0 -0.3087E-04  0  0.1376E-04  0  0.1245E-04
   (  1,  8,  5)  (  1,  9,  4)  (  1, 10,  4)  (  1, 17,  4)  (  1, 20,  4)
  0 -0.4528E-05  1  0.3109E-02  0 -0.4020E-02  0 -0.1748E-02  0 -0.9077E-03
   (  1, 15,  1)  (  1,  9,  3)  (  1,  9,  4)  (  1,  4, 14)  (  1, 24, 14)
  0 -0.3570E-03  0 -0.1999E-03  0 -0.1182E-03  0 -0.4105E-04  0 -0.2753E-04
   (  1, 30, 11)  (  1, 26, 12)  (  1, 31,  1)  (  1, 26, 10)  (  1, 21, 10)
  0 -0.1445E-04  0 -0.1334E-04  0  0.1532E-04  0  0.5118E-05  1  0.1276E-02
   (  1, 33,  6)  (  1, 16,  4)  (  1,  9,  4)  (  1, 17,  4)  (  1,  9,  4)
  0 -0.1491E-02  0 -0.5592E-03  0 -0.2768E-03  0 -0.9147E-04  0 -0.7364E-04
   (  1,  9,  4)  (  1,  4, 14)  (  1, 24, 14)  (  1, 30, 11)  (  1, 31, 14)
  0 -0.4378E-04  0 -0.1235E-04  0 -0.8898E-05  1  0.4255E-03  0 -0.4819E-03
   (  1, 31,  1)  (  1, 34, 14)  (  1, 21, 10)  (  1,  9,  4)  (  1,  9,  4)
  0 -0.1753E-03  0 -0.8511E-04  0 -0.3111E-04  0 -0.2627E-04  0 -0.1178E-04
   (  1,  4, 14)  (  1, 24, 14)  (  1, 24, 14)  (  1, 31, 14)  (  1, 31,  1)
  0 -0.4222E-05  1  0.1057E-03  0 -0.1346E-03  0 -0.4942E-04  0 -0.2470E-04
   (  1, 31,  1)  (  1,  9,  4)  (  1,  9,  4)  (  1,  4, 14)  (  1, 24, 14)
  0 -0.1093E-04  0 -0.7886E-05  1  0.2669E-04  0 -0.3865E-04  0  0.2164E-04
   (  1, 24, 14)  (  1, 31, 14)  (  1, 24, 14)  (  1,  9,  4)  (  1, 19,  4)
  0 -0.1219E-04  0 -0.3183E-05  1  0.1324E-04  0  0.9063E-05  1 -0.5452E-05
   (  1, 24, 14)  (  1, 31, 14)  (  1, 24, 14)  (  1, 21,  4)  (  1,  9,  4)

 MAXIMUM RESIDUAL FOR EACH ITERATION (1 INDICATES THE FIRST INNER ITERATION):

    RESIDUAL       RESIDUAL       RESIDUAL       RESIDUAL       RESIDUAL    
   LAYER,ROW,COL  LAYER,ROW,COL  LAYER,ROW,COL  LAYER,ROW,COL  LAYER,ROW,COL
 ---------------------------------------------------------------------------
  1  0.2562E+05  0  0.1410E+05  0   5623.      0   2193.      0   1412.    
   (  1, 20, 15)  (  1, 20, 15)  (  1, 20, 15)  (  1, 20, 15)  (  1, 20, 15)
  0  -876.6      0  -686.3      0  -510.7      0  -368.4      0  -303.8    
   (  1, 39, 15)  (  1, 39, 15)  (  1, 39, 15)  (  1, 39, 15)  (  1, 39, 15)
  0  -218.7      0  -129.2      0  -72.73      0  -38.25      0  -22.75    
   (  1, 39, 15)  (  1, 39, 15)  (  1, 39, 15)  (  1, 39, 15)  (  1, 39, 15)
  0  -11.29      0  -5.535      0  -4.891      0  -2.424      0  -1.090    
   (  1, 39, 15)  (  1, 39, 15)  (  1, 39, 15)  (  1, 39, 15)  (  1, 39, 15)
  0 -0.4923      0 -0.2038      0 -0.9837E-01  0 -0.4044E-01  0 -0.3365E-01
   (  1, 39, 15)  (  1, 39, 15)  (  1, 39, 15)  (  1, 39, 15)  (  1, 39, 15)
  1   9123.      0   3060.      0   1328.      0   539.7      0   323.4    
   (  1, 20, 15)  (  1, 20, 15)  (  1, 20, 15)  (  1, 20, 15)  (  1, 20, 15)
  0  -197.6      0  -151.5      0  -109.5      0  -81.80      0  -67.50    
   (  1, 39, 15)  (  1, 39, 15)  (  1, 39, 15)  (  1, 39, 15)  (  1, 39, 15)
  0  -51.14      0  -33.99      0  -19.98      0  -12.35      0  -7.293    
   (  1, 39, 15)  (  1, 39, 15)  (  1, 39, 15)  (  1, 39, 15)  (  1, 39, 15)
  0  -3.642      0  -1.959      0  -1.005      0 -0.8716      0 -0.4410    
   (  1, 39, 15)  (  1, 39, 15)  (  1, 39, 15)  (  1, 39, 15)  (  1, 39, 15)
  0 -0.2101      0 -0.9366E-01  0 -0.3976E-01  0 -0.1800E-01  0 -0.6412E-02
   (  1, 39, 15)  (  1, 39, 15)  (  1, 39, 15)  (  1, 39, 15)  (  1, 39, 15)
  1   7693.      0   1494.      0   525.7      0   220.9      0   115.2    
   (  1, 20, 15)  (  1, 20, 15)  (  1, 20, 15)  (  1, 20, 15)  (  1, 20, 15)
  0   59.31      0   37.53      0  -25.80      0  -18.97      0  -13.20    
   (  1, 20, 15)  (  1, 20, 15)  (  1, 39, 15)  (  1, 39, 15)  (  1, 39, 15)
  0  -11.67      0  -7.984      0  -5.366      0  -3.729      0  -2.458    
   (  1, 39, 15)  (  1, 39, 15)  (  1, 39, 15)  (  1, 39, 15)  (  1, 39, 15)
  0  -1.418      0 -0.7666      0 -0.4270      0 -0.2330      0 -0.1554    
   (  1, 39, 15)  (  1, 39, 15)  (  1, 39, 15)  (  1, 39, 15)  (  1, 39, 15)
  0 -0.1063      0 -0.4967E-01  0 -0.2244E-01  0 -0.9567E-02  0 -0.4339E-02
   (  1, 39, 15)  (  1, 39, 15)  (  1, 39, 15)  (  1, 39, 15)  (  1, 39, 15)
  1   906.4      0   397.5      0   261.3      0   91.26      0   47.84    
   (  1, 20, 15)  (  1, 20, 15)  (  1, 20, 15)  (  1, 20, 15)  (  1, 20, 15)
  0   22.12      0   14.20      0   7.936      0  -5.634      0  -4.320    
   (  1, 20, 15)  (  1, 20, 15)  (  1, 20, 15)  (  1, 39, 15)  (  1, 39, 15)
  0  -3.291      0  -2.585      0  -1.842      0  -1.207      0 -0.7112    
   (  1, 39, 15)  (  1, 39, 15)  (  1, 39, 15)  (  1, 39, 15)  (  1, 39, 15)
  0 -0.4179      0 -0.2454      0 -0.1463      0 -0.1304      0 -0.7138E-01
   (  1, 39, 15)  (  1, 39, 15)  (  1, 39, 15)  (  1, 39, 15)  (  1, 39, 15)
  0 -0.3815E-01  0 -0.1974E-01  0 -0.9661E-02  0 -0.4373E-02  0 -0.2771E-02
   (  1, 39, 15)  (  1, 39, 15)  (  1, 39, 15)  (  1, 39, 15)  (  1, 39, 15)
  1   1164.      0   324.5      0   121.2      0   44.06      0   21.49    
   (  1, 20, 15)  (  1, 20, 15)  (  1, 20, 15)  (  1, 20, 15)  (  1, 20, 15)
  0   8.445      0   5.076      0   2.753      0   1.771      0  -1.225    
   (  1, 20, 15)  (  1, 20, 15)  (  1, 20, 15)  (  1, 20, 15)  (  1, 39, 15)
  0 -0.9868      0 -0.7817      0 -0.5324      0 -0.3734      0 -0.2358    
   (  1, 39, 15)  (  1, 39, 15)  (  1, 39, 15)  (  1, 39, 15)  (  1, 39, 15)
  0 -0.1299      0 -0.8064E-01  0 -0.4788E-01  0 -0.3149E-01  0 -0.2436E-01
   (  1, 39, 15)  (  1, 39, 15)  (  1, 39, 15)  (  1, 39, 15)  (  1, 39, 15)
  0 -0.1213E-01  0 -0.6207E-02  1   574.1      0   141.7      0   49.79    
   (  1, 39, 15)  (  1, 39, 15)  (  1, 20, 15)  (  1, 20, 15)  (  1, 20, 15)
  0   19.97      0   8.844      0   3.385      0   1.834      0   1.015    
   (  1, 20, 15)  (  1, 20, 15)  (  1, 20, 15)  (  1, 20, 15)  (  1, 20, 15)
  0  0.6332      0  0.3881      0 -0.3369      0 -0.2309      0 -0.1623    
   (  1, 20, 15)  (  1, 20, 15)  (  1, 39, 15)  (  1, 39, 15)  (  1, 39, 15)
  0 -0.1040      0 -0.7271E-01  0 -0.4579E-01  0 -0.2657E-01  0 -0.1616E-01
   (  1, 39, 15)  (  1, 39, 15)  (  1, 39, 15)  (  1, 39, 15)  (  1, 39, 15)
  0 -0.9816E-02  0 -0.8795E-02  1   147.8      0   57.83      0   18.66    
   (  1, 39, 15)  (  1, 39, 15)  (  1, 20, 15)  (  1, 20, 15)  (  1, 20, 15)
  0   7.758      0   3.450      0   1.283      0  0.6525      0  0.3777    
   (  1, 20, 15)  (  1, 20, 15)  (  1, 20, 15)  (  1, 20, 15)  (  1, 20, 15)
  0  0.2198      0  0.1544      0  0.1198      0 -0.6514E-01  0 -0.4401E-01
   (  1, 20, 15)  (  1, 20, 15)  (  1, 20, 15)  (  1, 39, 15)  (  1, 39, 15)
  0 -0.2929E-01  0 -0.1961E-01  0 -0.1228E-01  0 -0.7954E-02  0 -0.5045E-02
   (  1, 39, 15)  (  1, 39, 15)  (  1, 39, 15)  (  1, 39, 15)  (  1, 39, 15)
  1   31.71      0   20.46      0   6.665      0   2.721      0   1.233    
   (  1, 20, 15)  (  1, 20, 15)  (  1, 20, 15)  (  1, 20, 15)  (  1, 20, 15)
  0  0.4587      0  0.2249      0  0.1343      0  0.7223E-01  0  0.4742E-01
   (  1, 20, 15)  (  1, 20, 15)  (  1, 20, 15)  (  1, 20, 15)  (  1, 20, 15)
  0  0.3952E-01  0 -0.2106E-01  0 -0.1487E-01  0 -0.1006E-01  0 -0.6397E-02
   (  1, 20, 15)  (  1, 39, 15)  (  1, 39, 15)  (  1, 39, 15)  (  1, 39, 15)
  0 -0.4439E-02  1   12.07      0   7.628      0   2.368      0  0.9170    
   (  1, 39, 15)  (  1, 20, 15)  (  1, 20, 15)  (  1, 20, 15)  (  1, 20, 15)
  0  0.3565      0  0.1509      0  0.7134E-01  0  0.4067E-01  0  0.2280E-01
   (  1, 20, 15)  (  1, 20, 15)  (  1, 20, 15)  (  1, 20, 15)  (  1, 20, 15)
  0  0.1423E-01  0  0.8833E-02  0  0.7002E-02  0 -0.4511E-02  0 -0.3096E-02
   (  1, 20, 15)  (  1, 20, 15)  (  1, 20, 15)  (  1, 39, 15)  (  1, 39, 15)
  0 -0.2039E-02  1   5.955      0   3.069      0  0.8454      0  0.3309    
   (  1, 39, 15)  (  1, 20, 15)  (  1, 20, 15)  (  1, 20, 15)  (  1, 20, 15)
  0  0.1493      0  0.5464E-01  0  0.2587E-01  0  0.1463E-01  0  0.7671E-02
   (  1, 20, 15)  (  1, 20, 15)  (  1, 20, 15)  (  1, 20, 15)  (  1, 20, 15)
  0  0.4686E-02  0  0.3265E-02  0  0.2196E-02  0 -0.1321E-02  1   2.440    
   (  1, 20, 15)  (  1, 20, 15)  (  1, 20, 15)  (  1, 39, 15)  (  1, 20, 15)
  0   1.105      0  0.2991      0  0.1258      0  0.6209E-01  0  0.1882E-01
   (  1, 20, 15)  (  1, 20, 15)  (  1, 20, 15)  (  1, 20, 15)  (  1, 20, 15)
  0  0.8701E-02  0  0.4520E-02  0  0.2389E-02  1  0.8654      0  0.3899    
   (  1, 20, 15)  (  1, 20, 15)  (  1, 20, 15)  (  1, 20, 15)  (  1, 20, 15)
  0  0.1054      0  0.4714E-01  0  0.2210E-01  0  0.5845E-02  0  0.2962E-02
   (  1, 20, 15)  (  1, 20, 15)  (  1, 20, 15)  (  1, 20, 15)  (  1, 20, 15)
  0  0.1536E-02  1  0.2612      0  0.1350      0  0.3672E-01  0  0.1679E-01
   (  1, 20, 15)  (  1, 20, 15)  (  1, 20, 15)  (  1, 20, 15)  (  1, 20, 15)
  0  0.6937E-02  0  0.1889E-02  1  0.9200E-01  0  0.4996E-01  0  0.1437E-01
   (  1, 20, 15)  (  1, 20, 15)  (  1, 20, 15)  (  1, 20, 15)  (  1, 20, 15)
  0  0.4733E-02  0  0.1752E-02  1  0.4119E-01  0  0.1037E-01  1  0.3480E-01
   (  1, 20, 15)  (  1, 20, 15)  (  1, 20, 15)  (  1, 20, 15)  (  1, 20, 15)



 OUTPUT CONTROL FOR STRESS PERIOD    1   TIME STEP    1
    SAVE HEAD FOR ALL LAYERS
    SAVE BUDGET
 UBDSV2 SAVING "   CONSTANT HEAD" ON UNIT  53 AT TIME STEP  1, STRESS PERIOD   1
 UBDSV1 SAVING "FLOW RIGHT FACE " ON UNIT  53 AT TIME STEP  1, STRESS PERIOD   1
 UBDSV1 SAVING "FLOW FRONT FACE " ON UNIT  53 AT TIME STEP  1, STRESS PERIOD   1

 HEAD WILL BE SAVED ON UNIT   51 AT END OF TIME STEP    1, STRESS PERIOD    1
1
  VOLUMETRIC BUDGET FOR ENTIRE MODEL AT END OF TIME STEP    1, STRESS PERIOD   1
  ------------------------------------------------------------------------------

     CUMULATIVE VOLUMES      L**3       RATES FOR THIS TIME STEP      L**3/T
     ------------------                 ------------------------

           IN:                                      IN:
           ---                                      ---
             STORAGE =           0.0000               STORAGE =           0.0000
       CONSTANT HEAD =           0.0000         CONSTANT HEAD =           0.0000
               WELLS =         597.1776                 WELLS =         597.1776
       RIVER LEAKAGE =          93.5279         RIVER LEAKAGE =          93.5279
            RECHARGE =        5813.6895              RECHARGE =        5813.6895

            TOTAL IN =        6504.3950              TOTAL IN =        6504.3950

          OUT:                                     OUT:
          ----                                     ----
             STORAGE =           0.0000               STORAGE =           0.0000
       CONSTANT HEAD =         550.5526         CONSTANT HEAD =         550.5526
               WELLS =           0.0000                 WELLS =           0.0000
       RIVER LEAKAGE =        5954.0303         RIVER LEAKAGE =        5954.0303
            RECHARGE =           0.0000              RECHARGE =           0.0000

           TOTAL OUT =        6504.5830             TOTAL OUT =        6504.5830

            IN - OUT =          -0.1880              IN - OUT =          -0.1880

 PERCENT DISCREPANCY =          -0.00     PERCENT DISCREPANCY =          -0.00






         TIME SUMMARY AT END OF TIME STEP    1 IN STRESS PERIOD    1
                    SECONDS     MINUTES      HOURS       DAYS        YEARS
                    -----------------------------------------------------------
   TIME STEP LENGTH  86400.      1440.0      24.000      1.0000     2.73785E-03
 STRESS PERIOD TIME  86400.      1440.0      24.000      1.0000     2.73785E-03
         TOTAL TIME  86400.      1440.0      24.000      1.0000     2.73785E-03
1
1
                            STRESS PERIOD NO.    2, LENGTH =   1825.000    
                            -----------------------------------------------

                              NUMBER OF TIME STEPS =     1

                               MULTIPLIER FOR DELT =     1.000

                            INITIAL TIME STEP SIZE =   1825.000    

 WELL NO.  LAYER   ROW   COL   STRESS RATE         
 --------------------------------------------------
      1      1      9     16       102.2    
      2      1     11     13       138.2    
      3      1     20     14       122.8    
      4      1     26     10       82.97    
      5      1     29      6       91.46    
      6      1     34     12       96.54    

      6 WELLS

 REUSING NON-PARAMETER RIVER REACHES FROM LAST STRESS PERIOD

     40 RIVER REACHES

 OPENING FILE ON UNIT   99:
 rech_1.ref                                                                                                                                                                                              



                           RECHARGE
 READING ON UNIT   99 WITH FORMAT: (20G15.6)           

 SOLVING FOR HEAD 


    11 CALLS TO PCG ROUTINE FOR TIME STEP   1 IN STRESS PERIOD    2
    90 TOTAL ITERATIONS

 MAXIMUM HEAD CHANGE FOR EACH ITERATION (1 INDICATES THE FIRST INNER ITERATION):

    HEAD CHANGE    HEAD CHANGE    HEAD CHANGE    HEAD CHANGE    HEAD CHANGE 
   LAYER,ROW,COL  LAYER,ROW,COL  LAYER,ROW,COL  LAYER,ROW,COL  LAYER,ROW,COL
 ---------------------------------------------------------------------------
  1  -1.369      0  0.2362      0 -0.1962      0 -0.6601E-01  0  0.2548E-01
   (  1,  9,  4)  (  1,  4, 14)  (  1,  1, 11)  (  1,  1, 20)  (  1, 26, 12)
  0  0.2232E-01  0 -0.8071E-02  0 -0.4242E-02  0 -0.1069E-02  0 -0.7343E-03
   (  1,  1, 20)  (  1,  3, 10)  (  1,  1, 20)  (  1, 20,  3)  (  1,  7,  1)
  0  0.3196E-03  0 -0.2296E-03  0  0.6845E-04  0 -0.2174E-04  0 -0.1194E-04
   (  1, 15, 11)  (  1,  1, 20)  (  1,  1, 20)  (  1, 10,  1)  (  1,  1, 20)
  0 -0.3698E-05  1 -0.3081      0  0.8683E-01  0 -0.4339E-01  0 -0.2364E-01
   (  1, 10,  1)  (  1, 23,  9)  (  1,  4, 14)  (  1,  1, 11)  (  1,  3,  9)
  0 -0.7291E-02  0 -0.3419E-02  0  0.1990E-02  0 -0.8137E-03  0 -0.4003E-03
   (  1, 24, 13)  (  1, 25, 10)  (  1, 21,  9)  (  1,  3,  6)  (  1, 15,  4)
  0 -0.1892E-03  0  0.9012E-04  0 -0.4648E-04  0 -0.1627E-04  0 -0.8911E-05
   (  1,  3,  9)  (  1, 15, 11)  (  1,  1, 20)  (  1, 24, 14)  (  1,  7, 12)
  1 -0.8145E-01  0  0.2846E-01  0  0.1342E-01  0 -0.6423E-02  0 -0.2504E-02
   (  1,  7, 10)  (  1,  4, 14)  (  1, 24, 14)  (  1,  3,  9)  (  1,  2, 11)
  0 -0.1331E-02  0 -0.5573E-03  0 -0.2440E-03  0  0.1464E-03  0 -0.5473E-04
   (  1,  2,  9)  (  1, 17,  4)  (  1, 20,  3)  (  1,  7, 12)  (  1, 38, 13)
  0  0.2094E-04  0  0.1194E-04  0  0.5159E-05  1 -0.2199E-01  0  0.8640E-02
   (  1, 24, 14)  (  1, 27, 12)  (  1, 28, 10)  (  1, 24, 13)  (  1,  4, 14)
  0 -0.4846E-02  0 -0.1733E-02  0 -0.7520E-03  0 -0.3571E-03  0  0.1500E-03
   (  1,  9,  8)  (  1,  3, 10)  (  1, 23, 10)  (  1,  2,  9)  (  1, 10,  9)
  0 -0.6807E-04  0 -0.3880E-04  0  0.1666E-04  0 -0.8425E-05  1 -0.6505E-02
   (  1,  4,  8)  (  1, 14,  4)  (  1,  9, 10)  (  1, 38, 13)  (  1, 24, 14)
  0  0.2538E-02  0 -0.1641E-02  0  0.5414E-03  0 -0.2840E-03  0 -0.9902E-04
   (  1,  4, 14)  (  1,  9,  8)  (  1, 25, 13)  (  1, 21,  9)  (  1,  2, 11)
  0  0.5438E-04  0  0.2305E-04  0  0.9231E-05  1 -0.1924E-02  0  0.7379E-03
   (  1, 10,  9)  (  1,  2,  9)  (  1,  7, 12)  (  1, 24, 14)  (  1,  4, 14)
  0 -0.5030E-03  0  0.1782E-03  0 -0.9783E-04  0  0.3353E-04  0  0.1911E-04
   (  1,  9,  9)  (  1, 25, 13)  (  1, 21,  9)  (  1, 27, 12)  (  1, 38, 13)
  0  0.8239E-05  1 -0.5559E-03  0  0.2160E-03  0 -0.1461E-03  0  0.6067E-04
   (  1,  2,  9)  (  1, 24, 14)  (  1,  4, 14)  (  1,  9,  9)  (  1,  2, 11)
  0 -0.3167E-04  0  0.1141E-04  0  0.6425E-05  1 -0.1607E-03  0  0.6276E-04
   (  1, 21,  9)  (  1, 27, 12)  (  1, 38, 13)  (  1, 24, 14)  (  1,  4, 14)
  0  0.4268E-04  0  0.2004E-04  0 -0.9750E-05  1 -0.4510E-04  0  0.1729E-04
   (  1, 24, 14)  (  1,  2, 11)  (  1, 21,  9)  (  1, 24, 14)  (  1,  4, 14)
  0  0.1291E-04  0  0.6861E-05  1 -0.1357E-04  0  0.6498E-05  1 -0.6326E-05
   (  1, 24, 14)  (  1,  2, 11)  (  1,  4, 14)  (  1,  4, 14)  (  1,  4, 14)

 MAXIMUM RESIDUAL FOR EACH ITERATION (1 INDICATES THE FIRST INNER ITERATION):

    RESIDUAL       RESIDUAL       RESIDUAL       RESIDUAL       RESIDUAL    
   LAYER,ROW,COL  LAYER,ROW,COL  LAYER,ROW,COL  LAYER,ROW,COL  LAYER,ROW,COL
 ---------------------------------------------------------------------------
  1  -62.58      0  -38.71      0   18.47      0   8.516      0   4.538    
   (  1,  4, 14)  (  1,  5, 13)  (  1,  3, 15)  (  1,  3, 15)  (  1,  3, 15)
  0   1.557      0  0.8650      0  0.3312      0  0.1549      0  0.6301E-01
   (  1,  3, 15)  (  1,  3, 15)  (  1, 18,  3)  (  1,  3, 15)  (  1,  3, 15)
  0  0.2386E-01  0  0.7654E-02  0  0.3498E-02  0  0.1663E-02  0  0.7313E-03
   (  1,  5, 13)  (  1, 24, 14)  (  1, 22, 15)  (  1, 20, 15)  (  1, 20, 15)
  0  0.3292E-03  1  -25.27      0  -11.54      0   6.082      0   2.801    
   (  1, 20, 15)  (  1,  4, 14)  (  1,  5, 13)  (  1,  3, 15)  (  1,  3, 15)
  0   1.344      0  0.6520      0  0.3127      0  0.1182      0  0.5993E-01
   (  1,  3, 15)  (  1,  3, 15)  (  1,  3, 15)  (  1,  3, 15)  (  1,  3, 15)
  0  0.2848E-01  0  0.8091E-02  0  0.3168E-02  0  0.1266E-02  0  0.5687E-03
   (  1,  3, 15)  (  1, 23, 15)  (  1, 24, 14)  (  1, 22, 15)  (  1, 22, 15)
  1  -8.747      0  -3.802      0   2.209      0   1.036      0  0.4311    
   (  1,  4, 14)  (  1,  5, 13)  (  1,  3, 15)  (  1,  3, 15)  (  1,  3, 15)
  0  0.2367      0  0.1174      0  0.5024E-01  0  0.2261E-01  0  0.7226E-02
   (  1,  3, 15)  (  1,  3, 15)  (  1,  3, 15)  (  1,  3, 15)  (  1,  3, 15)
  0  0.2665E-02  0 -0.1180E-02  0  0.4672E-03  1  -2.824      0  -1.214    
   (  1,  3, 15)  (  1, 28, 10)  (  1, 22, 15)  (  1,  4, 14)  (  1,  5, 13)
  0  0.7442      0  0.3753      0  0.1526      0  0.8684E-01  0  0.4218E-01
   (  1,  3, 15)  (  1,  3, 15)  (  1,  3, 15)  (  1,  3, 15)  (  1,  3, 15)
  0  0.1889E-01  0  0.9372E-02  0  0.4346E-02  0  0.1386E-02  1 -0.8871    
   (  1,  3, 15)  (  1,  3, 15)  (  1,  3, 15)  (  1,  3, 15)  (  1,  4, 14)
  0 -0.3717      0  0.2413      0  0.1270      0  0.5362E-01  0  0.2928E-01
   (  1,  5, 13)  (  1,  3, 15)  (  1,  3, 15)  (  1,  3, 15)  (  1,  3, 15)
  0  0.1407E-01  0  0.5869E-02  0  0.2618E-02  1 -0.2747      0 -0.1112    
   (  1,  3, 15)  (  1,  3, 15)  (  1,  3, 15)  (  1,  4, 14)  (  1,  5, 13)
  0  0.7651E-01  0  0.4022E-01  0  0.1764E-01  0  0.8985E-02  0  0.4267E-02
   (  1,  3, 15)  (  1,  3, 15)  (  1,  3, 15)  (  1,  3, 15)  (  1,  3, 15)
  0  0.1821E-02  1 -0.8499E-01  0 -0.3271E-01  0  0.2380E-01  0  0.1213E-01
   (  1,  3, 15)  (  1,  4, 14)  (  1,  5, 13)  (  1,  3, 15)  (  1,  3, 15)
  0  0.5423E-02  0  0.2562E-02  0  0.1215E-02  1 -0.2595E-01  0 -0.9459E-02
   (  1,  3, 15)  (  1,  3, 15)  (  1,  3, 15)  (  1,  4, 14)  (  1,  5, 13)
  0  0.7349E-02  0  0.3491E-02  0  0.1606E-02  1 -0.7764E-02  0  0.2925E-02
   (  1,  3, 15)  (  1,  3, 15)  (  1,  3, 15)  (  1,  4, 14)  (  1, 23, 15)
  0  0.2377E-02  0  0.1011E-02  1 -0.2779E-02  0  0.1030E-02  1 -0.1607E-02
   (  1,  3, 15)  (  1,  3, 15)  (  1,  4, 14)  (  1, 23, 15)  (  1,  4, 14)



 OUTPUT CONTROL FOR STRESS PERIOD    2   TIME STEP    1
    SAVE HEAD FOR ALL LAYERS
    SAVE BUDGET
 UBDSV1 SAVING "         STORAGE" ON UNIT  53 AT TIME STEP  1, STRESS PERIOD   2
 UBDSV2 SAVING "   CONSTANT HEAD" ON UNIT  53 AT TIME STEP  1, STRESS PERIOD   2
 UBDSV1 SAVING "FLOW RIGHT FACE " ON UNIT  53 AT TIME STEP  1, STRESS PERIOD   2
 UBDSV1 SAVING "FLOW FRONT FACE " ON UNIT  53 AT TIME STEP  1, STRESS PERIOD   2

 HEAD WILL BE SAVED ON UNIT   51 AT END OF TIME STEP    1, STRESS PERIOD    2
1
  VOLUMETRIC BUDGET FOR ENTIRE MODEL AT END OF TIME STEP    1, STRESS PERIOD   2
  ------------------------------------------------------------------------------

     CUMULATIVE VOLUMES      L**3       RATES FOR THIS TIME STEP      L**3/T
     ------------------                 ------------------------

           IN:                                      IN:
           ---                                      ---
             STORAGE =     2725543.5000               STORAGE =        1493.4485
       CONSTANT HEAD =           0.0000         CONSTANT HEAD =           0.0000
               WELLS =     1157768.5000                 WELLS =         634.0665
       RIVER LEAKAGE =      212941.2344         RIVER LEAKAGE =         116.6289
            RECHARGE =     4108888.7500              RECHARGE =        2248.2603

            TOTAL IN =     8205142.0000              TOTAL IN =        4492.4043

          OUT:                                     OUT:
          ----                                     ----
             STORAGE =          16.4160               STORAGE =       8.9951E-03
       CONSTANT HEAD =      680662.8750         CONSTANT HEAD =         372.6643
               WELLS =           0.0000                 WELLS =           0.0000
       RIVER LEAKAGE =     7524533.5000         RIVER LEAKAGE =        4119.7695
            RECHARGE =           0.0000              RECHARGE =           0.0000

           TOTAL OUT =     8205213.0000             TOTAL OUT =        4492.4429

            IN - OUT =         -71.0000              IN - OUT =      -3.8574E-02

 PERCENT DISCREPANCY =          -0.00     PERCENT DISCREPANCY =          -0.00






         TIME SUMMARY AT END OF TIME STEP    1 IN STRESS PERIOD    2
                    SECONDS     MINUTES      HOURS       DAYS        YEARS
                    -----------------------------------------------------------
   TIME STEP LENGTH 1.57680E+08 2.62800E+06  43800.      1825.0      4.9966    
 STRESS PERIOD TIME 1.57680E+08 2.62800E+06  43800.      1825.0      4.9966    
         TOTAL TIME 1.57766E+08 2.62944E+06  43824.      1826.0      4.9993    
1
1
                            STRESS PERIOD NO.    3, LENGTH =   1.000000    
                            -----------------------------------------------

                              NUMBER OF TIME STEPS =     1

                               MULTIPLIER FOR DELT =     1.000

                            INITIAL TIME STEP SIZE =   1.000000    

 WELL NO.  LAYER   ROW   COL   STRESS RATE         
 --------------------------------------------------
      1      1      9     16       102.2    
      2      1     11     13       138.2    
      3      1     20     14       122.8    
      4      1     26     10       82.97    
      5      1     29      6       91.46    
      6      1     34     12       96.54    

      6 WELLS

 REUSING NON-PARAMETER RIVER REACHES FROM LAST STRESS PERIOD

     40 RIVER REACHES

 OPENING FILE ON UNIT   99:
 rech_2.ref                                                                                                                                                                                              



                           RECHARGE
 READING ON UNIT   99 WITH FORMAT: (20G15.6)           

 SOLVING FOR HEAD 


    11 CALLS TO PCG ROUTINE FOR TIME STEP   1 IN STRESS PERIOD    3
   141 TOTAL ITERATIONS

 MAXIMUM HEAD CHANGE FOR EACH ITERATION (1 INDICATES THE FIRST INNER ITERATION):

    HEAD CHANGE    HEAD CHANGE    HEAD CHANGE    HEAD CHANGE    HEAD CHANGE 
   LAYER,ROW,COL  LAYER,ROW,COL  LAYER,ROW,COL  LAYER,ROW,COL  LAYER,ROW,COL
 ---------------------------------------------------------------------------
  1  -1.777      0  -2.939      0  -1.508      0 -0.6194      0 -0.3553    
   (  1,  9,  4)  (  1, 18,  2)  (  1, 31,  1)  (  1, 20,  3)  (  1,  6,  5)
  0 -0.2081      0 -0.9458E-01  0 -0.6393E-01  0  0.2931E-01  0 -0.3109E-01
   (  1,  1,  6)  (  1, 23,  1)  (  1, 22,  8)  (  1, 10,  1)  (  1,  9,  4)
  0  0.1787E-01  0 -0.1143E-01  0 -0.9284E-02  0 -0.3211E-02  0  0.1978E-02
   (  1, 10,  1)  (  1,  4,  1)  (  1,  3, 10)  (  1,  4,  8)  (  1,  2, 13)
  0  0.1190E-02  0 -0.8767E-03  0  0.4880E-03  0 -0.5330E-03  0 -0.2345E-03
   (  1, 22,  8)  (  1, 10,  1)  (  1,  9,  4)  (  1,  7,  1)  (  1, 17,  4)
  0 -0.9883E-04  0  0.4405E-04  0  0.3017E-04  0 -0.2112E-04  0  0.5716E-05
   (  1, 37,  7)  (  1,  8,  5)  (  1,  1, 20)  (  1,  1, 20)  (  1,  9,  4)
  1 -0.5644      0 -0.1231      0 -0.1678      0 -0.7833E-01  0 -0.5403E-01
   (  1, 19,  4)  (  1, 27,  1)  (  1,  9,  4)  (  1, 36,  5)  (  1, 17,  4)
  0 -0.3234E-01  0 -0.1383E-01  0 -0.1057E-01  0 -0.5427E-02  0 -0.3051E-02
   (  1, 33,  6)  (  1,  3, 10)  (  1, 22,  8)  (  1, 20,  3)  (  1,  4,  1)
  0  0.2147E-02  0 -0.1891E-02  0  0.1522E-02  0 -0.5058E-03  0  0.2313E-03
   (  1, 33,  2)  (  1,  9,  1)  (  1,  9,  4)  (  1,  1, 20)  (  1,  4, 14)
  0 -0.2217E-03  0 -0.1188E-03  0 -0.7208E-04  0  0.2856E-04  0  0.1743E-04
   (  1, 19,  4)  (  1,  5,  2)  (  1, 17,  4)  (  1,  1, 20)  (  1,  9,  4)
  0 -0.1720E-04  0  0.9357E-05  1  0.7922E-01  0 -0.7917E-01  0 -0.4337E-01
   (  1, 19,  4)  (  1,  9,  8)  (  1,  9,  4)  (  1, 23,  9)  (  1,  9,  8)
  0 -0.2315E-01  0  0.1654E-01  0  0.9981E-02  0 -0.4728E-02  0  0.3624E-02
   (  1,  9,  8)  (  1, 15,  1)  (  1,  1,  1)  (  1,  9,  8)  (  1, 17,  4)
  0 -0.2143E-02  0  0.1940E-02  0  0.9649E-03  0 -0.4086E-03  0 -0.2335E-03
   (  1, 10,  1)  (  1,  9,  4)  (  1, 19,  4)  (  1, 10,  1)  (  1, 10,  1)
  0 -0.1491E-03  0  0.8000E-04  0  0.3417E-04  0  0.3155E-04  0 -0.1627E-04
   (  1,  1, 20)  (  1, 17,  4)  (  1,  1, 20)  (  1, 10,  1)  (  1,  9,  4)
  0  0.1574E-04  0  0.6347E-05  1  0.2685E-01  0  0.1803E-01  0 -0.1420E-01
   (  1, 10,  1)  (  1,  1, 20)  (  1,  9,  4)  (  1,  8,  5)  (  1,  9,  9)
  0 -0.8813E-02  0  0.6359E-02  0  0.4256E-02  0  0.2299E-02  0  0.1476E-02
   (  1,  9,  8)  (  1, 19,  4)  (  1,  1,  1)  (  1, 24,  1)  (  1, 17,  4)
  0  0.5423E-03  0 -0.3937E-03  0  0.3754E-03  0 -0.1803E-03  0  0.7287E-04
   (  1, 28,  1)  (  1, 10,  1)  (  1, 10,  4)  (  1, 10,  1)  (  1, 21,  4)
  0 -0.6148E-04  0  0.3668E-04  0  0.1425E-04  0  0.1086E-04  0 -0.6617E-05
   (  1, 19,  4)  (  1, 17,  4)  (  1,  4, 14)  (  1, 10,  1)  (  1,  9,  4)
  1  0.9237E-02  0  0.5570E-02  0 -0.4027E-02  0 -0.2505E-02  0  0.1735E-02
   (  1,  9,  4)  (  1,  8,  5)  (  1,  9, 10)  (  1,  9,  8)  (  1, 19,  4)
  0  0.1087E-02  0  0.6197E-03  0  0.3892E-03  0  0.1556E-03  0  0.1665E-03
   (  1,  1,  1)  (  1, 25,  1)  (  1, 17,  4)  (  1, 28,  1)  (  1,  9,  4)
  0 -0.1073E-03  0 -0.5089E-04  0 -0.2756E-04  0 -0.2346E-04  0  0.1090E-04
   (  1, 10,  1)  (  1, 31,  1)  (  1, 28, 11)  (  1, 19,  4)  (  1, 17,  4)
  0  0.3795E-05  1  0.1965E-02  0  0.9843E-03  0  0.1170E-02  0 -0.6442E-03
   (  1,  3,  9)  (  1,  8,  5)  (  1, 31,  1)  (  1,  9,  3)  (  1,  9,  4)
  0  0.4394E-03  0  0.2528E-03  0  0.1573E-03  0  0.9257E-04  0  0.5328E-04
   (  1, 22,  8)  (  1,  4,  2)  (  1, 27,  1)  (  1, 17,  4)  (  1,  9,  8)
  0  0.2519E-04  0 -0.2119E-04  0  0.1539E-04  0 -0.7887E-05  1 -0.4425E-03
   (  1, 20,  3)  (  1,  9,  4)  (  1,  9,  1)  (  1, 28, 11)  (  1, 10,  1)
  0  0.7425E-03  0  0.3041E-03  0 -0.1613E-03  0  0.1224E-03  0  0.6844E-04
   (  1,  9,  4)  (  1, 31,  1)  (  1, 10,  9)  (  1, 22,  8)  (  1, 28,  3)
  0  0.3863E-04  0  0.2469E-04  0  0.1608E-04  0  0.1294E-04  0 -0.4950E-05
   (  1, 28,  1)  (  1, 24,  5)  (  1, 22,  8)  (  1,  9,  4)  (  1, 16,  4)
  1 -0.1482E-03  0  0.1705E-03  0  0.7979E-04  0 -0.4674E-04  0  0.3145E-04
   (  1,  9,  4)  (  1,  9,  4)  (  1, 31,  1)  (  1, 20,  3)  (  1, 25, 10)
  0  0.2322E-04  0  0.9413E-05  1 -0.4657E-04  0  0.3941E-04  0  0.2551E-04
   (  1, 30,  5)  (  1, 32,  1)  (  1,  9,  4)  (  1,  9,  4)  (  1, 32,  1)
  0 -0.1492E-04  0  0.1091E-04  0  0.6187E-05  1 -0.1486E-04  0  0.9505E-05
   (  1, 18,  1)  (  1, 25, 10)  (  1, 30,  5)  (  1,  9,  4)  (  1,  9,  8)
  1 -0.9081E-05
   (  1, 12,  4)

 MAXIMUM RESIDUAL FOR EACH ITERATION (1 INDICATES THE FIRST INNER ITERATION):

    RESIDUAL       RESIDUAL       RESIDUAL       RESIDUAL       RESIDUAL    
   LAYER,ROW,COL  LAYER,ROW,COL  LAYER,ROW,COL  LAYER,ROW,COL  LAYER,ROW,COL
 ---------------------------------------------------------------------------
  1  -70.85      0   54.85      0  -49.45      0   52.95      0   36.60    
   (  1,  8,  3)  (  1,  3,  9)  (  1,  3, 10)  (  1,  3, 15)  (  1,  3, 15)
  0  -21.88      0   15.99      0   9.934      0   4.777      0   3.755    
   (  1,  5, 13)  (  1,  3, 15)  (  1,  3, 15)  (  1,  3, 15)  (  1,  3, 15)
  0   2.357      0   1.465      0 -0.5998      0  0.5102      0 -0.2358    
   (  1,  3, 15)  (  1,  3, 15)  (  1,  3, 10)  (  1,  3, 15)  (  1,  5, 13)
  0  0.1379      0  0.5367E-01  0  0.4682E-01  0 -0.2499E-01  0  0.1148E-01
   (  1,  3, 15)  (  1, 33,  6)  (  1, 33,  6)  (  1, 27, 11)  (  1, 20, 15)
  0  0.5921E-02  0  0.2810E-02  0  0.1516E-02  0  0.6365E-03  0  0.5339E-03
   (  1, 20, 15)  (  1, 20, 15)  (  1,  6, 12)  (  1,  6, 12)  (  1,  6, 12)
  1   13.53      0   11.67      0   12.56      0   10.99      0   7.966    
   (  1, 24, 13)  (  1, 23, 15)  (  1, 23, 15)  (  1,  3, 15)  (  1,  3, 15)
  0   4.414      0   3.652      0   2.553      0   1.092      0  0.7836    
   (  1,  3, 15)  (  1,  3, 15)  (  1,  3, 15)  (  1,  3, 15)  (  1,  3, 15)
  0  0.3683      0  0.2498      0  0.1744      0  0.1183      0  0.5018E-01
   (  1,  3, 15)  (  1,  3, 15)  (  1,  3, 15)  (  1,  3, 15)  (  1,  3, 15)
  0  0.2708E-01  0  0.7753E-02  0  0.3632E-02  0  0.1888E-02  0  0.1703E-02
   (  1,  3, 15)  (  1,  3, 15)  (  1,  3, 15)  (  1, 20, 15)  (  1, 20, 15)
  0  0.1007E-02  0  0.5330E-03  1  -4.553      0   3.368      0   3.896    
   (  1, 20, 15)  (  1, 20, 15)  (  1, 29,  6)  (  1, 23, 15)  (  1, 23, 15)
  0   2.692      0   1.990      0   1.432      0  0.9045      0  0.4394    
   (  1, 23, 15)  (  1,  3, 15)  (  1,  3, 15)  (  1,  3, 15)  (  1,  3, 15)
  0  0.3282      0  0.2446      0  0.1262      0  0.7396E-01  0  0.3846E-01
   (  1,  3, 15)  (  1,  3, 15)  (  1,  3, 15)  (  1,  3, 15)  (  1,  3, 15)
  0  0.2195E-01  0  0.1110E-01  0  0.4255E-02  0  0.1980E-02  0  0.1748E-02
   (  1,  3, 15)  (  1,  3, 15)  (  1,  3, 15)  (  1,  3, 15)  (  1,  3, 15)
  0  0.1096E-02  0  0.6165E-03  1  -1.591      0   1.061      0   1.179    
   (  1,  3, 15)  (  1,  4, 14)  (  1, 29,  6)  (  1, 23, 15)  (  1, 23, 15)
  0  0.7350      0  0.5320      0  0.3820      0  0.2344      0  0.1270    
   (  1, 23, 15)  (  1,  3, 15)  (  1,  3, 15)  (  1,  3, 15)  (  1,  3, 15)
  0  0.7013E-01  0  0.5524E-01  0  0.4069E-01  0  0.2146E-01  0  0.1127E-01
   (  1,  3, 15)  (  1,  3, 15)  (  1,  3, 15)  (  1,  3, 15)  (  1,  3, 15)
  0  0.6063E-02  0  0.3460E-02  0  0.1913E-02  0  0.7162E-03  0  0.4668E-03
   (  1,  3, 15)  (  1,  3, 15)  (  1,  4, 14)  (  1,  3, 10)  (  1, 29, 15)
  1 -0.4385      0  0.3400      0  0.3401      0  0.1862      0  0.1519    
   (  1, 29,  6)  (  1, 23, 15)  (  1, 23, 15)  (  1, 23, 15)  (  1,  3, 15)
  0  0.1042      0  0.6581E-01  0  0.4157E-01  0  0.2189E-01  0  0.1634E-01
   (  1,  3, 15)  (  1,  3, 15)  (  1,  3, 15)  (  1,  3, 15)  (  1,  3, 15)
  0  0.1274E-01  0  0.7083E-02  0  0.3207E-02  0  0.2042E-02  0  0.6593E-03
   (  1,  3, 15)  (  1,  3, 15)  (  1,  3, 15)  (  1,  3, 15)  (  1,  3, 15)
  0  0.5589E-03  1  0.1022      0  0.1048      0  0.9074E-01  0  0.4658E-01
   (  1,  3, 15)  (  1, 23, 15)  (  1, 23, 15)  (  1, 23, 15)  (  1,  3, 15)
  0  0.4448E-01  0  0.2962E-01  0  0.1988E-01  0  0.1300E-01  0  0.5837E-02
   (  1,  3, 15)  (  1,  3, 15)  (  1,  3, 15)  (  1,  3, 15)  (  1,  3, 15)
  0  0.4190E-02  0  0.2477E-02  0  0.2080E-02  0  0.9619E-03  1 -0.2588E-01
   (  1,  3, 15)  (  1,  3, 15)  (  1,  3, 15)  (  1,  3, 15)  (  1, 29,  6)
  0  0.3249E-01  0  0.2694E-01  0  0.1392E-01  0  0.1311E-01  0  0.8632E-02
   (  1, 23, 15)  (  1, 23, 15)  (  1, 29, 15)  (  1,  3, 15)  (  1,  3, 15)
  0  0.6085E-02  0  0.3888E-02  0  0.1557E-02  0  0.1368E-02  0  0.1292E-02
   (  1,  3, 15)  (  1,  3, 15)  (  1,  3, 15)  (  1,  3, 15)  (  1,  3, 15)
  1 -0.8339E-02  0  0.9743E-02  0  0.7639E-02  0  0.4376E-02  0  0.3877E-02
   (  1, 34, 12)  (  1, 23, 15)  (  1, 23, 15)  (  1, 29, 15)  (  1,  3, 15)
  0  0.2481E-02  0  0.1782E-02  1  0.2956E-02  0  0.3040E-02  0  0.2253E-02
   (  1,  3, 15)  (  1,  3, 15)  (  1, 29, 15)  (  1,  3, 15)  (  1, 23, 15)
  0  0.1554E-02  0  0.1260E-02  0  0.7848E-03  1  0.1274E-02  0  0.1304E-02
   (  1, 29, 15)  (  1,  3, 15)  (  1,  3, 15)  (  1, 29, 15)  (  1,  3, 15)
  1  0.1125E-02
   (  1,  3, 15)



 OUTPUT CONTROL FOR STRESS PERIOD    3   TIME STEP    1
    SAVE HEAD FOR ALL LAYERS
    SAVE BUDGET
 UBDSV2 SAVING "   CONSTANT HEAD" ON UNIT  53 AT TIME STEP  1, STRESS PERIOD   3
 UBDSV1 SAVING "FLOW RIGHT FACE " ON UNIT  53 AT TIME STEP  1, STRESS PERIOD   3
 UBDSV1 SAVING "FLOW FRONT FACE " ON UNIT  53 AT TIME STEP  1, STRESS PERIOD   3

 HEAD WILL BE SAVED ON UNIT   51 AT END OF TIME STEP    1, STRESS PERIOD    3
1
  VOLUMETRIC BUDGET FOR ENTIRE MODEL AT END OF TIME STEP    1, STRESS PERIOD   3
  ------------------------------------------------------------------------------

     CUMULATIVE VOLUMES      L**3       RATES FOR THIS TIME STEP      L**3/T
     ------------------                 ------------------------

           IN:                                      IN:
           ---                                      ---
             STORAGE =     2725543.5000               STORAGE =           0.0000
       CONSTANT HEAD =           0.0000         CONSTANT HEAD =           0.0000
               WELLS =     1158402.6250                 WELLS =         634.0665
       RIVER LEAKAGE =      213073.9844         RIVER LEAKAGE =         132.7462
            RECHARGE =     4111137.0000              RECHARGE =        2248.2603

            TOTAL IN =     8208157.0000              TOTAL IN =        3015.0730

          OUT:                                     OUT:
          ----                                     ----
             STORAGE =          16.4160               STORAGE =           0.0000
       CONSTANT HEAD =      680842.3125         CONSTANT HEAD =         179.4157
               WELLS =           0.0000                 WELLS =           0.0000
       RIVER LEAKAGE =     7527369.0000         RIVER LEAKAGE =        2835.6904
            RECHARGE =           0.0000              RECHARGE =           0.0000

           TOTAL OUT =     8208228.0000             TOTAL OUT =        3015.1062

            IN - OUT =         -71.0000              IN - OUT =      -3.3203E-02

 PERCENT DISCREPANCY =          -0.00     PERCENT DISCREPANCY =          -0.00






         TIME SUMMARY AT END OF TIME STEP    1 IN STRESS PERIOD    3
                    SECONDS     MINUTES      HOURS       DAYS        YEARS
                    -----------------------------------------------------------
   TIME STEP LENGTH  86400.      1440.0      24.000      1.0000     2.73785E-03
 STRESS PERIOD TIME  86400.      1440.0      24.000      1.0000     2.73785E-03
         TOTAL TIME 1.57853E+08 2.63088E+06  43848.      1827.0      5.0021    
1

 Run end date and time (yyyy/mm/dd hh:mm:ss): 2016/07/15 16:20:08
 Elapsed run time:  0.020 Seconds

