                                  MODFLOW-NWT-SWR1 
      U.S. GEOLOGICAL SURVEY MODULAR FINITE-DIFFERENCE GROUNDWATER-FLOW MODEL
                            VERSION 1.0.9 07/01/2014
                    BASED ON MODFLOW-2005 VERSION 1.11.00 08/30/2013

 LIST FILE: freyberg.list
                         UNIT    2

 OPENING freyberg.dis
 FILE TYPE:DIS   UNIT   11   STATUS:OLD    
 FORMAT:FORMATTED              ACCESS:SEQUENTIAL          

 OPENING freyberg.upw
 FILE TYPE:LPF   UNIT   31   STATUS:OLD    
 FORMAT:FORMATTED              ACCESS:SEQUENTIAL          

 OPENING freyberg.bas
 FILE TYPE:BAS6   UNIT   13   STATUS:OLD    
 FORMAT:FORMATTED              ACCESS:SEQUENTIAL          

 OPENING freyberg.rch
 FILE TYPE:RCH   UNIT   19   STATUS:OLD    
 FORMAT:FORMATTED              ACCESS:SEQUENTIAL          

 OPENING freyberg.wel
 FILE TYPE:WEL   UNIT   20   STATUS:OLD    
 FORMAT:FORMATTED              ACCESS:SEQUENTIAL          

 OPENING freyberg.riv
 FILE TYPE:RIV   UNIT   18   STATUS:OLD    
 FORMAT:FORMATTED              ACCESS:SEQUENTIAL          

 OPENING freyberg.oc
 FILE TYPE:OC   UNIT   14   STATUS:OLD    
 FORMAT:FORMATTED              ACCESS:SEQUENTIAL          

 OPENING freyberg.hds
 FILE TYPE:DATA   UNIT   51   STATUS:REPLACE
 FORMAT:FORMATTED              ACCESS:SEQUENTIAL          

 OPENING freyberg.ddn
 FILE TYPE:DATA(BINARY)   UNIT   52   STATUS:REPLACE
 FORMAT:UNFORMATTED            ACCESS:STREAM              

 OPENING freyberg.cbc
 FILE TYPE:DATA(BINARY)   UNIT   53   STATUS:REPLACE
 FORMAT:UNFORMATTED            ACCESS:STREAM              

 OPENING freyberg.pcg
 FILE TYPE:PCG   UNIT   32   STATUS:OLD    
 FORMAT:FORMATTED              ACCESS:SEQUENTIAL          

 BAS -- BASIC PACKAGE, VERSION 7, 5/2/2005 INPUT READ FROM UNIT   13

 MODFLOW was compiled using mixed precision
 Precision of REAL variables:           6
 Precision of DOUBLE PRECISION variables:          15

 DISCRETIZATION INPUT DATA READ FROM UNIT   11
 # Discretization file for MODFLOW, generated by Flopy.
    1 LAYERS        40 ROWS        20 COLUMNS
    3 STRESS PERIOD(S) IN SIMULATION
 MODEL TIME UNIT IS DAYS
 MODEL LENGTH UNIT IS METERS
  Confining bed flag for each layer:
   0



                               DELR
 READING ON UNIT   11 WITH FORMAT: (20G15.6)           



                               DELC
 READING ON UNIT   11 WITH FORMAT: (40G15.6)           

 TOP ELEVATION OF LAYER 1 =   35.0000    

 OPENING FILE ON UNIT   99:
 botm.ref                                                                                                                                                                                                



             MODEL LAYER BOTTOM EL. FOR LAYER   1
 READING ON UNIT   99 WITH FORMAT: (10E12.4)           


 STRESS PERIOD     LENGTH       TIME STEPS     MULTIPLIER FOR DELT    SS FLAG
 ----------------------------------------------------------------------------
        1         1.000000          1                    1.000         SS
        2         1825.000          1                    1.000         TR
        3         1.000000          1                    1.000         SS

 COMBINED STEADY-STATE AND TRANSIENT SIMULATION




 # Basic package file for MODFLOW, generated by Flopy.                           
 THE FREE FORMAT OPTION HAS BEEN SELECTED

 OPENING FILE ON UNIT   99:
 ibound.ref                                                                                                                                                                                              



                     BOUNDARY ARRAY FOR LAYER   1
 READING ON UNIT   99 WITH FORMAT: (25I3)              

 AQUIFER HEAD WILL BE SET TO  -999.99     AT ALL NO-FLOW NODES (IBOUND=0).

 OPENING FILE ON UNIT   99:
 strt.ref                                                                                                                                                                                                



                       INITIAL HEAD FOR LAYER   1
 READING ON UNIT   99 WITH FORMAT: (10E12.4)           
 # Output control package file for MODFLOW, generated by Flopy.

 OUTPUT CONTROL IS SPECIFIED ONLY AT TIME STEPS FOR WHICH OUTPUT IS DESIRED
 HEADS WILL BE SAVED WITH FORMAT: (20E15.6)           
 COMPACT CELL-BY-CELL BUDGET FILES WILL BE WRITTEN
 AUXILIARY DATA WILL BE SAVED IN CELL-BY-CELL BUDGET FILES
 HEAD PRINT FORMAT CODE IS   0    DRAWDOWN PRINT FORMAT CODE IS   0
 HEADS WILL BE SAVED ON UNIT   51    DRAWDOWNS WILL BE SAVED ON UNIT   52

 LPF -- LAYER-PROPERTY FLOW PACKAGE, VERSION 7, 5/2/2005
         INPUT READ FROM UNIT   31
 # UPW for MODFLOW-NWT, generated by Flopy.
 CELL-BY-CELL FLOWS WILL BE SAVED ON UNIT   53
 HEAD AT CELLS THAT CONVERT TO DRY= -1.00000E+30
 No named parameters

   LAYER FLAGS:
 LAYER       LAYTYP        LAYAVG         CHANI        LAYVKA        LAYWET
 ---------------------------------------------------------------------------
    1             1             0     1.000E+00             0             0

   INTERPRETATION OF LAYER FLAGS:
                        INTERBLOCK     HORIZONTAL    DATA IN
         LAYER TYPE   TRANSMISSIVITY   ANISOTROPY   ARRAY VKA   WETTABILITY
 LAYER      (LAYTYP)      (LAYAVG)       (CHANI)      (LAYVKA)      (LAYWET)
 ---------------------------------------------------------------------------
    1   CONVERTIBLE      HARMONIC     1.000E+00    VERTICAL K  NON-WETTABLE

 WETTING CAPABILITY IS NOT ACTIVE IN ANY LAYER

 OPENING FILE ON UNIT   99:
 hk_Layer_1.ref                                                                                                                                                                                          



              HYD. COND. ALONG ROWS FOR LAYER   1
 READING ON UNIT   99 WITH FORMAT: (20G15.6)           

      VERTICAL HYD. COND. =   1.00000     FOR LAYER   1

 OPENING FILE ON UNIT   99:
 ss_Layer_1.ref                                                                                                                                                                                          



                   SPECIFIC STORAGE FOR LAYER   1
 READING ON UNIT   99 WITH FORMAT: (20G15.6)           

           SPECIFIC YIELD =  5.080353E-02 FOR LAYER   1

 WEL -- WELL PACKAGE, VERSION 1.0.6, 12/05/2012 INPUT READ FROM UNIT   20
 # Well file for MODFLOW, generated by Flopy.
 No named parameters
 MAXIMUM OF      6 ACTIVE WELLS AT ONE TIME
 No named parameters


     0 Well parameters

 RIV -- RIVER PACKAGE, VERSION 7, 5/2/2005 INPUT READ FROM UNIT   18
 # RIV for MODFLOW, generated by Flopy.
 No named parameters
 MAXIMUM OF     40 ACTIVE RIVER REACHES AT ONE TIME


     0 River parameters

 RCH -- RECHARGE PACKAGE, VERSION 7, 5/2/2005 INPUT READ FROM UNIT   19
 # RCH for MODFLOW, generated by Flopy.
 No named parameters
 OPTION 3 -- RECHARGE TO HIGHEST ACTIVE NODE IN EACH VERTICAL COLUMN


     0 Recharge parameters

 PCG -- CONJUGATE-GRADIENT SOLUTION PACKAGE, VERSION 7, 5/2/2005
 MAXIMUM OF    100 CALLS OF SOLUTION ROUTINE
 MAXIMUM OF     25 INTERNAL ITERATIONS PER CALL TO SOLUTION ROUTINE
 MATRIX PRECONDITIONING TYPE :    1
 IHCOFADD option -- When an active cell is surrounded by dry cells, convert
 the cell to dry only if storage and head-dependent boundary flow are 0.



                                    SOLUTION BY THE CONJUGATE-GRADIENT METHOD
                                   -------------------------------------------
                    MAXIMUM NUMBER OF CALLS TO PCG ROUTINE =      100
                        MAXIMUM ITERATIONS PER CALL TO PCG =       25
                               MATRIX PRECONDITIONING TYPE =        1
        RELAXATION FACTOR (ONLY USED WITH PRECOND. TYPE 1) =    0.10000E+01
 PARAMETER OF POLYNOMIAL PRECOND. = 2 (2) OR IS CALCULATED :        2
                         HEAD CHANGE CRITERION FOR CLOSURE =    0.10000E-04
                     RESIDUAL CHANGE CRITERION FOR CLOSURE =    0.10000E+00
            PCG HEAD AND RESIDUAL CHANGE PRINTOUT INTERVAL =        5
     PRINTING FROM SOLVER IS LIMITED(1) OR SUPPRESSED (>1) =        0
                            STEADY-STATE DAMPING PARAMETER =    0.70000E+00
                               TRANSIENT DAMPING PARAMETER =    0.70000E+00
1
                            STRESS PERIOD NO.    1, LENGTH =   1.000000    
                            -----------------------------------------------

                              NUMBER OF TIME STEPS =     1

                               MULTIPLIER FOR DELT =     1.000

                            INITIAL TIME STEP SIZE =   1.000000    

 WELL NO.  LAYER   ROW   COL   STRESS RATE         
 --------------------------------------------------
      1      1      9     16       100.0    
      2      1     11     13       99.41    
      3      1     20     14       97.52    
      4      1     26     10       90.44    
      5      1     29      6       95.78    
      6      1     34     12       103.9    

      6 WELLS

 REACH NO.  LAYER   ROW   COL     STAGE      CONDUCTANCE     BOTTOM EL.         
 -------------------------------------------------------------------------------
      1      1      1     15       20.10           6062.           20.00    
      2      1      2     15       19.87           1646.           19.75    
      3      1      3     15       19.65           7571.           19.50    
      4      1      4     15       19.42          0.1400E+05       19.25    
      5      1      5     15       19.19           1131.           19.00    
      6      1      6     15       18.97           3038.           18.75    
      7      1      7     15       18.74           4350.           18.50    
      8      1      8     15       18.51           639.3           18.25    
      9      1      9     15       18.28           7539.           18.00    
     10      1     10     15       19.06           9056.           17.75    
     11      1     11     15       17.83           5832.           17.50    
     12      1     12     15       17.60           1429.           17.25    
     13      1     13     15       17.38           975.7           17.00    
     14      1     14     15       17.15           5371.           16.75    
     15      1     15     15       16.92          0.1715E+05       16.50    
     16      1     16     15       16.70           3855.           16.25    
     17      1     17     15       16.47          0.1097E+05       16.00    
     18      1     18     15       16.24           8740.           15.75    
     19      1     19     15       16.02           3285.           15.50    
     20      1     20     15       15.79           786.4           15.25    
     21      1     21     15       15.56           7090.           15.00    
     22      1     22     15       15.33           6193.           14.75    
     23      1     23     15       15.11           1209.           14.50    
     24      1     24     15       14.88           691.7           14.25    
     25      1     25     15       14.65          0.3704E+05       14.00    
     26      1     26     15       14.43           318.1           13.75    
     27      1     27     15       14.20           4205.           13.50    
     28      1     28     15       13.97           2802.           13.25    
     29      1     29     15       13.75           1818.           13.00    
     30      1     30     15       13.52           5350.           12.75    
     31      1     31     15       13.29           862.3           12.50    
     32      1     32     15       13.07           2615.           12.25    
     33      1     33     15       12.84           1969.           12.00    
     34      1     34     15       12.61           3765.           11.75    
     35      1     35     15       12.38          0.2481E+05       11.50    
     36      1     36     15       12.16           3450.           11.25    
     37      1     37     15       11.93           1251.           11.00    
     38      1     38     15       11.70           498.0           10.75    
     39      1     39     15       11.48           1551.           10.50    
     40      1     40     15       11.25           5127.           10.25    

     40 RIVER REACHES

 OPENING FILE ON UNIT   99:
 rech_0.ref                                                                                                                                                                                              



                           RECHARGE
 READING ON UNIT   99 WITH FORMAT: (20G15.6)           

 SOLVING FOR HEAD 


    15 CALLS TO PCG ROUTINE FOR TIME STEP   1 IN STRESS PERIOD    1
   233 TOTAL ITERATIONS

 MAXIMUM HEAD CHANGE FOR EACH ITERATION (1 INDICATES THE FIRST INNER ITERATION):

    HEAD CHANGE    HEAD CHANGE    HEAD CHANGE    HEAD CHANGE    HEAD CHANGE 
   LAYER,ROW,COL  LAYER,ROW,COL  LAYER,ROW,COL  LAYER,ROW,COL  LAYER,ROW,COL
 ---------------------------------------------------------------------------
  1  -79.29      0  -69.00      0   29.86      0   7.115      0   6.554    
   (  1, 39, 11)  (  1,  9,  4)  (  1,  9,  3)  (  1, 39, 11)  (  1, 36, 13)
  0  -2.892      0   1.915      0 -0.8047      0 -0.7029      0  0.4038    
   (  1, 32,  8)  (  1, 13,  2)  (  1,  9,  3)  (  1, 13,  1)  (  1, 13,  1)
  0 -0.1505      0 -0.8162E-01  0 -0.1454      0  0.9536E-01  0  0.3413E-01
   (  1, 23, 12)  (  1, 26, 10)  (  1,  9,  4)  (  1,  9,  1)  (  1, 33, 13)
  0  0.1550E-01  0 -0.8700E-02  0  0.4959E-02  0  0.1850E-02  0  0.1152E-02
   (  1, 36, 10)  (  1, 30,  1)  (  1, 30,  2)  (  1, 14,  9)  (  1,  7,  3)
  0 -0.9105E-03  0  0.4896E-03  0 -0.1535E-03  0  0.1332E-03  0  0.7351E-04
   (  1,  9,  4)  (  1,  9,  2)  (  1, 29,  6)  (  1, 29,  3)  (  1,  5,  7)
  1  -21.04      0  -22.01      0   7.829      0   2.488      0   1.618    
   (  1, 39, 11)  (  1,  9,  4)  (  1, 39, 11)  (  1, 39, 11)  (  1, 36, 13)
  0  -1.133      0  0.5466      0 -0.2841      0 -0.2984      0  0.1085    
   (  1, 29,  6)  (  1,  9,  4)  (  1, 37,  5)  (  1, 13,  1)  (  1, 13,  1)
  0 -0.4708E-01  0  0.5459E-01  0 -0.4779E-01  0  0.1443E-01  0  0.1224E-01
   (  1, 21,  4)  (  1,  9,  3)  (  1,  9,  4)  (  1, 13,  1)  (  1, 33, 13)
  0  0.5339E-02  0 -0.3636E-02  0  0.1437E-02  0  0.6021E-03  0 -0.4880E-03
   (  1, 36, 10)  (  1, 31,  1)  (  1, 30,  2)  (  1, 28, 12)  (  1,  9,  4)
  0 -0.2654E-03  0  0.1098E-03  0  0.9140E-04  0  0.3761E-04  0  0.3089E-04
   (  1, 14,  9)  (  1,  8,  5)  (  1, 29,  3)  (  1, 23,  2)  (  1,  8,  5)
  1   15.09      0  -10.96      0  -3.440      0  -1.154      0 -0.7558    
   (  1,  9,  4)  (  1,  9,  4)  (  1,  8,  5)  (  1,  4,  9)  (  1, 34,  3)
  0 -0.5210      0 -0.1998      0 -0.1750      0 -0.9166E-01  0 -0.3537E-01
   (  1, 33,  8)  (  1, 24,  7)  (  1, 37,  5)  (  1, 13,  1)  (  1, 26,  5)
  0 -0.1987E-01  0 -0.2101E-01  0  0.1774E-01  0 -0.5866E-02  0 -0.5719E-02
   (  1, 34,  3)  (  1, 14,  2)  (  1,  9,  3)  (  1, 23,  2)  (  1,  8,  5)
  0 -0.1569E-02  0 -0.1128E-02  0  0.4263E-03  0  0.3053E-03  0  0.2174E-03
   (  1, 37,  5)  (  1, 31,  1)  (  1, 22,  9)  (  1, 35,  6)  (  1, 10,  3)
  0 -0.2141E-03  0  0.6924E-04  0  0.4416E-04  0  0.2569E-04  0  0.1006E-04
   (  1,  9,  4)  (  1, 13,  3)  (  1, 29,  2)  (  1, 23, 13)  (  1, 19,  2)
  1   1.771      0   1.181      0  -1.232      0 -0.4073      0 -0.3295    
   (  1,  8,  5)  (  1,  9,  3)  (  1,  9,  4)  (  1, 34,  7)  (  1,  6,  2)
  0 -0.1914      0 -0.6539E-01  0 -0.6604E-01  0 -0.4917E-01  0 -0.1734E-01
   (  1, 32,  8)  (  1, 37,  5)  (  1, 37,  5)  (  1, 13,  1)  (  1, 26,  5)
  0 -0.1032E-01  0 -0.5565E-02  0  0.4293E-02  0 -0.2299E-02  0 -0.1936E-02
   (  1, 34,  3)  (  1,  9,  4)  (  1,  9,  3)  (  1, 26, 10)  (  1, 25, 12)
  0 -0.9269E-03  0 -0.5757E-03  0  0.1916E-03  0 -0.1026E-03  0  0.7993E-04
   (  1, 22, 14)  (  1, 34,  3)  (  1, 36, 13)  (  1, 22, 14)  (  1,  9,  4)
  0  0.5951E-04  0 -0.2950E-04  0  0.1072E-04  0  0.6352E-05  1  -1.058    
   (  1,  8,  5)  (  1,  8,  5)  (  1, 23, 13)  (  1,  8,  5)  (  1,  9,  4)
  0   1.231      0 -0.2757      0 -0.2038      0 -0.1182      0 -0.6808E-01
   (  1,  9,  4)  (  1, 26, 11)  (  1,  9,  4)  (  1, 33,  2)  (  1, 32,  8)
  0 -0.2676E-01  0 -0.2621E-01  0 -0.1795E-01  0 -0.5285E-02  0 -0.2077E-02
   (  1,  8,  5)  (  1, 37,  5)  (  1, 13,  1)  (  1, 22, 14)  (  1, 25, 12)
  0 -0.2189E-02  0  0.1969E-02  0  0.1029E-02  0 -0.5561E-03  0 -0.3588E-03
   (  1, 15,  4)  (  1,  9,  3)  (  1, 18,  9)  (  1, 25, 12)  (  1, 22, 14)
  0 -0.2298E-03  0  0.8827E-04  0  0.6446E-04  0 -0.2021E-04  0  0.1354E-04
   (  1, 34,  3)  (  1,  8,  5)  (  1, 33,  2)  (  1, 22, 14)  (  1, 10,  4)
  0 -0.1450E-04  0 -0.5985E-05  1 -0.4532      0  0.4466      0  0.1116    
   (  1,  9,  4)  (  1,  8,  5)  (  1,  9,  4)  (  1,  9,  4)  (  1,  8,  5)
  0 -0.6697E-01  0 -0.3636E-01  0 -0.2166E-01  0 -0.1183E-01  0 -0.8415E-02
   (  1, 22, 14)  (  1, 33,  2)  (  1, 32,  8)  (  1,  8,  5)  (  1, 37,  5)
  0 -0.4861E-02  0  0.1958E-02  0  0.1064E-02  0 -0.1064E-02  0  0.5323E-03
   (  1, 22,  4)  (  1, 13,  1)  (  1,  9,  1)  (  1,  9,  3)  (  1,  9,  4)
  0  0.3229E-03  0  0.1588E-03  0 -0.1053E-03  0 -0.6427E-04  0  0.3513E-04
   (  1, 19,  9)  (  1, 34,  3)  (  1, 37,  5)  (  1, 34,  3)  (  1,  8,  5)
  0  0.2218E-04  0  0.1080E-04  0 -0.7019E-05  1 -0.1095      0  0.1198    
   (  1, 31,  1)  (  1,  9,  4)  (  1, 22, 14)  (  1,  9,  4)  (  1,  9,  4)
  0  0.3796E-01  0 -0.2923E-01  0 -0.1274E-01  0 -0.6720E-02  0 -0.3639E-02
   (  1,  8,  5)  (  1, 22, 14)  (  1, 13,  2)  (  1, 28,  3)  (  1,  9, 11)
  0 -0.2348E-02  0 -0.1219E-02  0  0.6718E-03  0 -0.2542E-03  0  0.2050E-03
   (  1, 37,  5)  (  1, 22,  4)  (  1, 13,  1)  (  1, 25, 12)  (  1, 36, 14)
  0 -0.1875E-03  0  0.1699E-03  0  0.4651E-04  0 -0.4031E-04  0 -0.1466E-04
   (  1,  9,  4)  (  1, 13,  1)  (  1, 24,  1)  (  1, 33, 13)  (  1, 34,  3)
  0  0.1302E-04  0  0.6362E-05  1  0.2299E-01  0  0.1420E-01  0  0.1666E-01
   (  1,  8,  5)  (  1, 31,  1)  (  1, 22, 14)  (  1,  8,  5)  (  1,  9,  4)
  0 -0.1166E-01  0 -0.4000E-02  0 -0.2383E-02  0 -0.1044E-02  0 -0.7078E-03
   (  1,  9,  3)  (  1,  5,  4)  (  1,  4, 10)  (  1, 26, 11)  (  1, 14,  9)
  0 -0.2960E-03  0 -0.1786E-03  0  0.7677E-04  0  0.6917E-04  0  0.6280E-04
   (  1, 19,  2)  (  1, 26, 11)  (  1, 26, 11)  (  1, 36, 14)  (  1, 13,  1)
  0 -0.3668E-04  0  0.1433E-04  0 -0.1369E-04  0 -0.4723E-05  1  0.7860E-02
   (  1,  9,  4)  (  1, 11,  3)  (  1, 33, 13)  (  1, 37, 10)  (  1, 22, 14)
  0 -0.8283E-02  0  0.6105E-02  0 -0.3330E-02  0 -0.1431E-02  0 -0.8226E-03
   (  1,  9,  3)  (  1,  9,  4)  (  1, 22, 14)  (  1,  5,  4)  (  1,  4,  9)
  0 -0.3818E-03  0 -0.2152E-03  0 -0.8093E-04  0 -0.5564E-04  0  0.2456E-04
   (  1, 14,  9)  (  1, 31,  1)  (  1, 19,  1)  (  1, 25, 12)  (  1, 26, 11)
  0 -0.2956E-04  0  0.2529E-04  0  0.8536E-05  1  0.3174E-02  0 -0.3546E-02
   (  1,  9,  4)  (  1,  9,  3)  (  1, 20, 12)  (  1,  9,  3)  (  1,  9,  3)
  0 -0.1454E-02  0 -0.8277E-03  0 -0.4784E-03  0 -0.2457E-03  0 -0.1567E-03
   (  1, 22, 14)  (  1, 22, 14)  (  1,  5,  4)  (  1,  4, 10)  (  1, 13,  1)
  0  0.8024E-04  0  0.2823E-04  0 -0.1495E-04  0  0.8002E-05  1  0.1191E-02
   (  1, 14,  2)  (  1, 34,  3)  (  1, 25, 12)  (  1, 31,  1)  (  1,  9,  4)
  0 -0.1163E-02  0 -0.5874E-03  0 -0.1908E-03  0 -0.1709E-03  0 -0.5917E-04
   (  1,  9,  3)  (  1, 22, 14)  (  1, 28,  3)  (  1, 33, 14)  (  1,  4, 10)
  0 -0.4725E-04  0  0.2789E-04  0  0.9737E-05  1  0.3679E-03  0 -0.3432E-03
   (  1,  8,  5)  (  1, 14,  2)  (  1, 30,  2)  (  1,  9,  4)  (  1,  9,  4)
  0 -0.1995E-03  0 -0.4913E-04  0 -0.5126E-04  0 -0.2346E-04  0 -0.1026E-04
   (  1, 22, 14)  (  1, 28,  3)  (  1, 33, 14)  (  1, 26, 11)  (  1, 30,  1)
  0 -0.5609E-05  1  0.1057E-03  0 -0.9500E-04  0 -0.5416E-04  0 -0.1554E-04
   (  1, 34,  3)  (  1,  9,  4)  (  1,  9,  4)  (  1, 22, 14)  (  1, 22, 14)
  0 -0.1571E-04  0 -0.7605E-05  1  0.2420E-04  0 -0.3003E-04  0  0.1550E-04
   (  1, 33, 14)  (  1, 29,  3)  (  1, 22, 14)  (  1,  9,  3)  (  1,  9,  3)
  0 -0.1169E-04  0 -0.3611E-05  1 -0.8013E-05
   (  1, 22, 14)  (  1, 28,  3)  (  1,  9,  4)

 MAXIMUM RESIDUAL FOR EACH ITERATION (1 INDICATES THE FIRST INNER ITERATION):

    RESIDUAL       RESIDUAL       RESIDUAL       RESIDUAL       RESIDUAL    
   LAYER,ROW,COL  LAYER,ROW,COL  LAYER,ROW,COL  LAYER,ROW,COL  LAYER,ROW,COL
 ---------------------------------------------------------------------------
  1  0.2909E+05  0  0.1455E+05  0  -5465.      0  -4048.      0  -1863.    
   (  1, 25, 15)  (  1, 25, 15)  (  1, 39,  9)  (  1, 39,  9)  (  1, 39,  9)
  0  -1145.      0  -791.9      0  -598.0      0  -384.4      0  -271.0    
   (  1, 39, 15)  (  1, 39, 15)  (  1, 39, 15)  (  1, 39, 15)  (  1, 39, 15)
  0  -166.2      0  -104.5      0  -85.87      0  -53.09      0  -22.48    
   (  1, 39, 15)  (  1, 39, 15)  (  1, 39, 15)  (  1, 39, 15)  (  1, 39, 15)
  0  -9.830      0  -3.614      0  -1.370      0 -0.4660      0  0.2031    
   (  1, 39, 15)  (  1, 39, 15)  (  1, 39, 15)  (  1, 39, 15)  (  1, 38, 12)
  0 -0.1729      0 -0.9975E-01  0 -0.7630E-01  0 -0.4870E-01  0 -0.2732E-01
   (  1, 34, 15)  (  1, 34, 15)  (  1, 34, 15)  (  1, 34, 15)  (  1, 34, 15)
  1   6728.      0   3303.      0   1174.      0  -872.7      0  -472.3    
   (  1, 25, 15)  (  1, 25, 15)  (  1, 25, 15)  (  1, 39,  9)  (  1, 39,  9)
  0  -282.6      0  -215.7      0  -149.8      0  -96.82      0  -67.84    
   (  1, 39, 15)  (  1, 39, 15)  (  1, 39, 15)  (  1, 39, 15)  (  1, 39, 15)
  0  -44.02      0  -33.92      0  -24.50      0  -14.86      0  -6.675    
   (  1, 39, 15)  (  1, 39, 15)  (  1, 39, 15)  (  1, 39, 15)  (  1, 39, 15)
  0  -2.991      0  -1.167      0 -0.4495      0 -0.1636      0 -0.1340    
   (  1, 39, 15)  (  1, 39, 15)  (  1, 39, 15)  (  1, 39, 15)  (  1, 39, 15)
  0 -0.5380E-01  0 -0.2777E-01  0 -0.1694E-01  0 -0.9799E-02  0 -0.5492E-02
   (  1, 39, 15)  (  1, 39, 15)  (  1, 34, 15)  (  1, 34, 15)  (  1, 34, 15)
  1   3581.      0   1216.      0   456.3      0   225.0      0   128.0    
   (  1, 25, 15)  (  1, 25, 15)  (  1, 25, 15)  (  1, 25, 15)  (  1, 25, 15)
  0  -74.23      0  -58.05      0  -37.40      0  -24.67      0  -18.48    
   (  1, 39, 15)  (  1, 39, 15)  (  1, 39, 15)  (  1, 39, 15)  (  1, 39, 15)
  0  -12.83      0  -9.922      0  -7.877      0  -4.397      0  -2.312    
   (  1, 39, 15)  (  1, 39, 15)  (  1, 39, 15)  (  1, 39, 15)  (  1, 39, 15)
  0  -1.096      0 -0.5043      0 -0.2431      0 -0.1101      0 -0.7684E-01
   (  1, 39, 15)  (  1, 39, 15)  (  1, 39, 15)  (  1, 39, 15)  (  1, 39, 15)
  0 -0.4452E-01  0 -0.2367E-01  0 -0.1138E-01  0 -0.3961E-02  0 -0.1441E-02
   (  1, 39, 15)  (  1, 39, 15)  (  1, 39, 15)  (  1, 39, 15)  (  1, 38, 15)
  1   739.1      0   414.5      0   190.7      0   85.55      0   47.15    
   (  1, 25, 15)  (  1, 25, 15)  (  1, 25, 15)  (  1, 25, 15)  (  1, 25, 15)
  0   23.44      0  -16.23      0  -11.33      0  -8.060      0  -5.412    
   (  1, 25, 15)  (  1, 39, 15)  (  1, 39, 15)  (  1, 39, 15)  (  1, 39, 15)
  0  -3.545      0  -3.136      0  -2.375      0  -1.502      0 -0.9137    
   (  1, 39, 15)  (  1, 39, 15)  (  1, 39, 15)  (  1, 39, 15)  (  1, 39, 15)
  0 -0.4402      0 -0.2017      0 -0.9340E-01  0 -0.4127E-01  0 -0.3388E-01
   (  1, 39, 15)  (  1, 39, 15)  (  1, 39, 15)  (  1, 39, 15)  (  1, 39, 15)
  0 -0.1742E-01  0 -0.7380E-02  0 -0.3029E-02  0 -0.1908E-02  1   650.9    
   (  1, 39, 15)  (  1, 39, 15)  (  1, 39, 15)  (  1, 39, 15)  (  1, 25, 15)
  0   255.1      0   102.9      0   43.60      0   18.33      0   9.035    
   (  1, 25, 15)  (  1, 25, 15)  (  1, 25, 15)  (  1, 25, 15)  (  1, 25, 15)
  0   5.921      0  -3.638      0  -2.598      0  -1.770      0  -1.317    
   (  1, 25, 15)  (  1, 39, 15)  (  1, 39, 15)  (  1, 39, 15)  (  1, 39, 15)
  0 -0.9770      0 -0.8476      0 -0.5538      0 -0.3369      0 -0.1692    
   (  1, 39, 15)  (  1, 39, 15)  (  1, 39, 15)  (  1, 39, 15)  (  1, 39, 15)
  0 -0.8070E-01  0 -0.4124E-01  0 -0.1872E-01  0 -0.8711E-02  0 -0.6480E-02
   (  1, 39, 15)  (  1, 39, 15)  (  1, 39, 15)  (  1, 39, 15)  (  1, 39, 15)
  0 -0.4302E-02  0 -0.2614E-02  1   283.4      0   118.2      0   51.69    
   (  1, 39, 15)  (  1, 39, 15)  (  1, 25, 15)  (  1, 25, 15)  (  1, 25, 15)
  0   18.52      0   7.117      0   3.744      0   2.079      0  -1.142    
   (  1, 25, 15)  (  1, 25, 15)  (  1, 25, 15)  (  1, 25, 15)  (  1, 39, 15)
  0 -0.8106      0 -0.5772      0 -0.4483      0 -0.3885      0 -0.2699    
   (  1, 39, 15)  (  1, 39, 15)  (  1, 39, 15)  (  1, 39, 15)  (  1, 39, 15)
  0 -0.1814      0 -0.1087      0 -0.5822E-01  0 -0.2828E-01  0 -0.1397E-01
   (  1, 39, 15)  (  1, 39, 15)  (  1, 39, 15)  (  1, 39, 15)  (  1, 39, 15)
  0 -0.6541E-02  0 -0.5723E-02  0 -0.2617E-02  1   80.04      0   43.79    
   (  1, 39, 15)  (  1, 39, 15)  (  1, 39, 15)  (  1, 25, 15)  (  1, 25, 15)
  0   21.55      0   6.848      0   2.821      0   1.348      0  0.6737    
   (  1, 25, 15)  (  1, 25, 15)  (  1, 25, 15)  (  1, 25, 15)  (  1, 25, 15)
  0  0.3629      0 -0.2455      0 -0.1803      0 -0.1364      0 -0.8838E-01
   (  1, 25, 15)  (  1, 39, 15)  (  1, 39, 15)  (  1, 39, 15)  (  1, 39, 15)
  0 -0.7485E-01  0 -0.5647E-01  0 -0.3391E-01  0 -0.1857E-01  0 -0.9155E-02
   (  1, 39, 15)  (  1, 39, 15)  (  1, 39, 15)  (  1, 39, 15)  (  1, 39, 15)
  0 -0.4385E-02  0 -0.2069E-02  1   23.79      0   11.16      0   7.240    
   (  1, 39, 15)  (  1, 39, 15)  (  1, 25, 15)  (  1, 25, 15)  (  1, 25, 15)
  0   2.403      0   1.067      0  0.4335      0  0.2117      0  0.1158    
   (  1, 25, 15)  (  1, 25, 15)  (  1, 25, 15)  (  1, 25, 15)  (  1, 25, 15)
  0 -0.7293E-01  0 -0.5398E-01  0 -0.4103E-01  0 -0.2501E-01  0 -0.1934E-01
   (  1, 39, 15)  (  1, 39, 15)  (  1, 39, 15)  (  1, 39, 15)  (  1, 39, 15)
  0 -0.1639E-01  0 -0.1029E-01  0 -0.5703E-02  0 -0.2799E-02  1   9.553    
   (  1, 39, 15)  (  1, 39, 15)  (  1, 39, 15)  (  1, 39, 15)  (  1, 25, 15)
  0   5.796      0   2.694      0  0.8360      0  0.3666      0  0.1360    
   (  1, 25, 15)  (  1, 25, 15)  (  1, 25, 15)  (  1, 25, 15)  (  1, 25, 15)
  0  0.6644E-01  0  0.3585E-01  0 -0.2137E-01  0 -0.1570E-01  0 -0.1162E-01
   (  1, 25, 15)  (  1, 25, 15)  (  1, 39, 15)  (  1, 39, 15)  (  1, 39, 15)
  0 -0.8596E-02  0 -0.6886E-02  0 -0.4436E-02  1   3.850      0   2.051    
   (  1, 39, 15)  (  1, 39, 15)  (  1, 39, 15)  (  1, 25, 15)  (  1, 25, 15)
  0  0.8108      0  0.2919      0  0.1102      0  0.4443E-01  0  0.2172E-01
   (  1, 25, 15)  (  1, 25, 15)  (  1, 25, 15)  (  1, 25, 15)  (  1, 25, 15)
  0  0.1125E-01  0 -0.6198E-02  0 -0.4661E-02  0 -0.2936E-02  1   1.316    
   (  1, 25, 15)  (  1, 39, 15)  (  1, 39, 15)  (  1, 39, 15)  (  1, 25, 15)
  0  0.7050      0  0.2269      0  0.1016      0  0.2870E-01  0  0.1421E-01
   (  1, 25, 15)  (  1, 25, 15)  (  1, 25, 15)  (  1, 25, 15)  (  1, 25, 15)
  0  0.6914E-02  0  0.3642E-02  0 -0.1862E-02  1  0.4094      0  0.2411    
   (  1, 25, 15)  (  1, 25, 15)  (  1, 39, 15)  (  1, 25, 15)  (  1, 25, 15)
  0  0.6979E-01  0  0.3490E-01  0  0.1008E-01  0  0.4294E-02  0  0.2093E-02
   (  1, 25, 15)  (  1, 25, 15)  (  1, 25, 15)  (  1, 25, 15)  (  1, 25, 15)
  0  0.1162E-02  1  0.1215      0  0.8234E-01  0  0.2743E-01  0  0.1191E-01
   (  1, 25, 15)  (  1, 25, 15)  (  1, 25, 15)  (  1, 25, 15)  (  1, 25, 15)
  0  0.3768E-02  0  0.1559E-02  1  0.4595E-01  0  0.2714E-01  0  0.1560E-01
   (  1, 25, 15)  (  1, 25, 15)  (  1, 25, 15)  (  1, 25, 15)  (  1, 25, 15)
  0  0.3778E-02  0  0.1752E-02  1  0.2682E-01
   (  1, 25, 15)  (  1, 25, 15)  (  1, 25, 15)



 OUTPUT CONTROL FOR STRESS PERIOD    1   TIME STEP    1
    SAVE HEAD FOR ALL LAYERS
    SAVE BUDGET
 UBDSV2 SAVING "   CONSTANT HEAD" ON UNIT  53 AT TIME STEP  1, STRESS PERIOD   1
 UBDSV1 SAVING "FLOW RIGHT FACE " ON UNIT  53 AT TIME STEP  1, STRESS PERIOD   1
 UBDSV1 SAVING "FLOW FRONT FACE " ON UNIT  53 AT TIME STEP  1, STRESS PERIOD   1

 HEAD WILL BE SAVED ON UNIT   51 AT END OF TIME STEP    1, STRESS PERIOD    1
1
  VOLUMETRIC BUDGET FOR ENTIRE MODEL AT END OF TIME STEP    1, STRESS PERIOD   1
  ------------------------------------------------------------------------------

     CUMULATIVE VOLUMES      L**3       RATES FOR THIS TIME STEP      L**3/T
     ------------------                 ------------------------

           IN:                                      IN:
           ---                                      ---
             STORAGE =           0.0000               STORAGE =           0.0000
       CONSTANT HEAD =           0.0000         CONSTANT HEAD =           0.0000
               WELLS =         587.0278                 WELLS =         587.0278
       RIVER LEAKAGE =          86.4572         RIVER LEAKAGE =          86.4572
            RECHARGE =        6621.6060              RECHARGE =        6621.6060

            TOTAL IN =        7295.0908              TOTAL IN =        7295.0908

          OUT:                                     OUT:
          ----                                     ----
             STORAGE =           0.0000               STORAGE =           0.0000
       CONSTANT HEAD =         614.2744         CONSTANT HEAD =         614.2744
               WELLS =           0.0000                 WELLS =           0.0000
       RIVER LEAKAGE =        6681.0654         RIVER LEAKAGE =        6681.0654
            RECHARGE =           0.0000              RECHARGE =           0.0000

           TOTAL OUT =        7295.3398             TOTAL OUT =        7295.3398

            IN - OUT =          -0.2490              IN - OUT =          -0.2490

 PERCENT DISCREPANCY =          -0.00     PERCENT DISCREPANCY =          -0.00






         TIME SUMMARY AT END OF TIME STEP    1 IN STRESS PERIOD    1
                    SECONDS     MINUTES      HOURS       DAYS        YEARS
                    -----------------------------------------------------------
   TIME STEP LENGTH  86400.      1440.0      24.000      1.0000     2.73785E-03
 STRESS PERIOD TIME  86400.      1440.0      24.000      1.0000     2.73785E-03
         TOTAL TIME  86400.      1440.0      24.000      1.0000     2.73785E-03
1
1
                            STRESS PERIOD NO.    2, LENGTH =   1825.000    
                            -----------------------------------------------

                              NUMBER OF TIME STEPS =     1

                               MULTIPLIER FOR DELT =     1.000

                            INITIAL TIME STEP SIZE =   1825.000    

 WELL NO.  LAYER   ROW   COL   STRESS RATE         
 --------------------------------------------------
      1      1      9     16       119.4    
      2      1     11     13       86.14    
      3      1     20     14       101.1    
      4      1     26     10       133.1    
      5      1     29      6       139.8    
      6      1     34     12       113.2    

      6 WELLS

 REUSING NON-PARAMETER RIVER REACHES FROM LAST STRESS PERIOD

     40 RIVER REACHES

 OPENING FILE ON UNIT   99:
 rech_1.ref                                                                                                                                                                                              



                           RECHARGE
 READING ON UNIT   99 WITH FORMAT: (20G15.6)           

 SOLVING FOR HEAD 


    11 CALLS TO PCG ROUTINE FOR TIME STEP   1 IN STRESS PERIOD    2
    99 TOTAL ITERATIONS

 MAXIMUM HEAD CHANGE FOR EACH ITERATION (1 INDICATES THE FIRST INNER ITERATION):

    HEAD CHANGE    HEAD CHANGE    HEAD CHANGE    HEAD CHANGE    HEAD CHANGE 
   LAYER,ROW,COL  LAYER,ROW,COL  LAYER,ROW,COL  LAYER,ROW,COL  LAYER,ROW,COL
 ---------------------------------------------------------------------------
  1  -3.606      0  -1.212      0 -0.3467      0 -0.1373      0 -0.6531E-01
   (  1, 13,  2)  (  1,  8,  5)  (  1, 19,  1)  (  1,  1, 10)  (  1,  3,  1)
  0 -0.3665E-01  0 -0.2511E-01  0 -0.9048E-02  0 -0.3955E-02  0  0.2970E-02
   (  1, 17,  3)  (  1,  1,  2)  (  1,  2, 11)  (  1,  2,  8)  (  1, 10,  3)
  0 -0.1578E-02  0 -0.6880E-03  0  0.3236E-03  0 -0.1183E-03  0 -0.8854E-04
   (  1,  8,  1)  (  1,  1, 20)  (  1,  1, 20)  (  1,  5,  8)  (  1,  1, 20)
  0  0.5079E-04  0 -0.1510E-04  0 -0.4554E-05  1  0.3782      0 -0.1525    
   (  1,  1, 20)  (  1,  1, 20)  (  1, 36, 14)  (  1, 13,  2)  (  1,  8,  1)
  0 -0.6868E-01  0 -0.3978E-01  0  0.1468E-01  0  0.1193E-01  0  0.4975E-02
   (  1,  8,  1)  (  1,  8,  5)  (  1, 14,  2)  (  1, 10,  4)  (  1,  8,  5)
  0 -0.1549E-02  0  0.6352E-03  0 -0.4233E-03  0 -0.2078E-03  0 -0.9249E-04
   (  1,  3,  1)  (  1, 28,  8)  (  1,  1,  2)  (  1,  9,  2)  (  1,  1,  7)
  0 -0.3604E-04  0  0.1514E-04  0 -0.3700E-05  1  0.1038      0 -0.4079E-01
   (  1,  3,  5)  (  1, 36, 14)  (  1,  7,  2)  (  1, 13,  2)  (  1, 26, 11)
  0 -0.2045E-01  0  0.1300E-01  0  0.5489E-02  0  0.3575E-02  0  0.1632E-02
   (  1,  8,  1)  (  1, 19,  1)  (  1, 14,  2)  (  1, 10,  4)  (  1,  8,  5)
  0  0.4759E-03  0  0.1788E-03  0  0.1020E-03  0 -0.4751E-04  0  0.2192E-04
   (  1,  4,  9)  (  1,  5,  4)  (  1, 24,  1)  (  1,  9,  2)  (  1, 27,  4)
  0 -0.1422E-04  0 -0.4350E-05  1  0.2773E-01  0 -0.1199E-01  0  0.5073E-02
   (  1,  8,  5)  (  1,  9,  2)  (  1, 11,  3)  (  1, 26, 11)  (  1, 19,  1)
  0  0.3868E-02  0  0.1656E-02  0  0.7599E-03  0  0.2862E-03  0  0.1237E-03
   (  1, 19,  1)  (  1, 14,  2)  (  1, 11,  4)  (  1,  8,  5)  (  1, 22,  3)
  0  0.6942E-04  0 -0.2399E-04  0  0.1706E-04  0  0.6885E-05  1  0.7146E-02
   (  1,  5,  4)  (  1, 36, 14)  (  1,  8,  5)  (  1,  7,  1)  (  1, 10,  4)
  0 -0.3429E-02  0  0.1568E-02  0  0.1059E-02  0  0.3994E-03  0  0.2565E-03
   (  1, 26, 11)  (  1, 19,  1)  (  1, 19,  1)  (  1,  2,  7)  (  1,  8,  5)
  0  0.1367E-03  0  0.4457E-04  0  0.1812E-04  0  0.8029E-05  1  0.1709E-02
   (  1,  9,  2)  (  1, 22,  4)  (  1, 23,  2)  (  1, 33,  8)  (  1, 10,  4)
  0 -0.9623E-03  0  0.4411E-03  0  0.2718E-03  0  0.1322E-03  0  0.7287E-04
   (  1, 26, 11)  (  1, 19,  1)  (  1, 19,  1)  (  1,  4,  9)  (  1,  8,  5)
  0  0.4782E-04  0  0.1161E-04  0  0.4735E-05  1 -0.4412E-03  0 -0.2638E-03
   (  1,  9,  2)  (  1, 20,  3)  (  1, 23,  2)  (  1, 22, 14)  (  1, 26, 11)
  0  0.1563E-03  0  0.7956E-04  0  0.4066E-04  0  0.1907E-04  0  0.1397E-04
   (  1,  1, 10)  (  1,  5,  4)  (  1,  4,  9)  (  1,  8,  5)  (  1,  9,  2)
  0  0.2688E-05  1 -0.1299E-03  0 -0.7325E-04  0  0.5032E-04  0  0.2243E-04
   (  1, 20,  3)  (  1, 22, 14)  (  1, 26, 11)  (  1,  1, 10)  (  1,  5,  4)
  0  0.1148E-04  0  0.4864E-05  1  0.3966E-04  0 -0.2048E-04  0  0.1456E-04
   (  1,  4,  9)  (  1,  8,  5)  (  1, 26, 10)  (  1, 26, 11)  (  1,  1, 10)
  0  0.5271E-05  1  0.1187E-04  0  0.5319E-05  1  0.5698E-05
   (  1,  5,  7)  (  1, 26, 10)  (  1,  8,  8)  (  1, 26, 11)

 MAXIMUM RESIDUAL FOR EACH ITERATION (1 INDICATES THE FIRST INNER ITERATION):

    RESIDUAL       RESIDUAL       RESIDUAL       RESIDUAL       RESIDUAL    
   LAYER,ROW,COL  LAYER,ROW,COL  LAYER,ROW,COL  LAYER,ROW,COL  LAYER,ROW,COL
 ---------------------------------------------------------------------------
  1   92.06      0   36.51      0   17.77      0  -11.22      0  -6.502    
   (  1, 23,  2)  (  1, 22,  3)  (  1, 18, 15)  (  1, 22,  3)  (  1, 27,  9)
  0   3.107      0   1.645      0  0.8626      0  0.5134      0  0.2857    
   (  1,  1, 15)  (  1,  1, 15)  (  1,  1, 15)  (  1,  1, 15)  (  1,  1, 15)
  0  0.1534      0  0.7349E-01  0  0.3673E-01  0  0.1679E-01  0  0.7215E-02
   (  1,  1, 15)  (  1,  1, 15)  (  1,  1, 15)  (  1,  1, 15)  (  1,  1, 15)
  0  0.3157E-02  0  0.1363E-02  0  0.5410E-03  1  -16.92      0  -12.30    
   (  1,  1, 15)  (  1,  1, 15)  (  1,  1, 15)  (  1, 23,  2)  (  1, 26, 10)
  0   6.817      0   2.836      0   1.908      0 -0.7131      0  0.3087    
   (  1, 23,  2)  (  1, 18, 15)  (  1, 22,  3)  (  1, 22,  2)  (  1, 21, 15)
  0  0.1485      0  0.7896E-01  0  0.4652E-01  0  0.2540E-01  0  0.8928E-02
   (  1, 21, 15)  (  1, 21, 15)  (  1, 21, 15)  (  1, 21, 15)  (  1, 21, 15)
  0  0.4273E-02  0  0.1875E-02  0  0.9291E-03  1  -4.298      0  -4.440    
   (  1, 21, 15)  (  1, 21, 15)  (  1, 21, 15)  (  1, 23,  2)  (  1, 26, 10)
  0   1.954      0  0.8259      0 -0.4998      0  0.1714      0  0.8014E-01
   (  1, 23,  2)  (  1, 18, 15)  (  1, 23,  2)  (  1, 28, 15)  (  1, 21, 15)
  0  0.4284E-01  0  0.2268E-01  0  0.1139E-01  0  0.6425E-02  0  0.2233E-02
   (  1, 28, 15)  (  1, 28, 15)  (  1, 21, 15)  (  1, 21, 15)  (  1, 27, 15)
  0  0.1047E-02  0  0.5010E-03  1  -1.466      0  -1.413      0  0.5056    
   (  1, 21, 15)  (  1, 21, 15)  (  1, 27,  9)  (  1, 26, 10)  (  1, 18, 15)
  0  0.2405      0 -0.1492      0  0.4249E-01  0  0.2085E-01  0  0.1150E-01
   (  1, 18, 15)  (  1, 23,  2)  (  1, 28, 15)  (  1, 28, 15)  (  1, 28, 15)
  0  0.6086E-02  0  0.2527E-02  0  0.1303E-02  0  0.6590E-03  1 -0.4760    
   (  1, 28, 15)  (  1, 28, 15)  (  1, 28, 15)  (  1, 27, 15)  (  1, 27,  9)
  0 -0.4296      0  0.1516      0  0.7049E-01  0 -0.3788E-01  0  0.1267E-01
   (  1, 26, 10)  (  1, 18, 15)  (  1, 18, 15)  (  1, 23,  2)  (  1, 28, 15)
  0  0.6139E-02  0  0.3466E-02  0  0.1697E-02  0  0.7577E-03  1 -0.1488    
   (  1, 28, 15)  (  1, 38, 13)  (  1, 28, 15)  (  1, 28, 15)  (  1, 27,  9)
  0 -0.1296      0  0.4618E-01  0  0.2075E-01  0  0.7695E-02  0  0.3751E-02
   (  1, 26, 10)  (  1, 27, 15)  (  1, 18, 15)  (  1, 18, 15)  (  1,  2, 13)
  0  0.1744E-02  0  0.1153E-02  0  0.4379E-03  1 -0.4500E-01  0 -0.3914E-01
   (  1, 28, 12)  (  1, 38, 13)  (  1, 28, 15)  (  1, 27,  9)  (  1, 26, 10)
  0  0.1438E-01  0  0.6113E-02  0 -0.2626E-02  0  0.1323E-02  0  0.5422E-03
   (  1, 27, 15)  (  1, 18, 15)  (  1, 27,  9)  (  1,  2, 13)  (  1,  2, 13)
  0  0.3568E-03  1 -0.1358E-01  0 -0.1183E-01  0  0.4428E-02  0  0.1862E-02
   (  1, 38, 13)  (  1, 27,  9)  (  1, 26, 10)  (  1, 27, 15)  (  1, 32, 15)
  0 -0.8226E-03  0  0.4477E-03  1  0.4368E-02  0 -0.3608E-02  0  0.1375E-02
   (  1, 27,  9)  (  1,  2, 13)  (  1, 21, 15)  (  1, 26, 10)  (  1, 27, 15)
  0  0.6411E-03  1  0.1579E-02  0 -0.1155E-02  1  0.1094E-02
   (  1, 26,  4)  (  1, 21, 15)  (  1, 26, 10)  (  1, 32, 15)



 OUTPUT CONTROL FOR STRESS PERIOD    2   TIME STEP    1
    SAVE HEAD FOR ALL LAYERS
    SAVE BUDGET
 UBDSV1 SAVING "         STORAGE" ON UNIT  53 AT TIME STEP  1, STRESS PERIOD   2
 UBDSV2 SAVING "   CONSTANT HEAD" ON UNIT  53 AT TIME STEP  1, STRESS PERIOD   2
 UBDSV1 SAVING "FLOW RIGHT FACE " ON UNIT  53 AT TIME STEP  1, STRESS PERIOD   2
 UBDSV1 SAVING "FLOW FRONT FACE " ON UNIT  53 AT TIME STEP  1, STRESS PERIOD   2

 HEAD WILL BE SAVED ON UNIT   51 AT END OF TIME STEP    1, STRESS PERIOD    2
1
  VOLUMETRIC BUDGET FOR ENTIRE MODEL AT END OF TIME STEP    1, STRESS PERIOD   2
  ------------------------------------------------------------------------------

     CUMULATIVE VOLUMES      L**3       RATES FOR THIS TIME STEP      L**3/T
     ------------------                 ------------------------

           IN:                                      IN:
           ---                                      ---
             STORAGE =     2563579.2500               STORAGE =        1404.7009
       CONSTANT HEAD =           0.0000         CONSTANT HEAD =           0.0000
               WELLS =     1264838.3750                 WELLS =         692.7405
       RIVER LEAKAGE =      342183.0625         RIVER LEAKAGE =         187.4502
            RECHARGE =     5188244.5000              RECHARGE =        2839.2454

            TOTAL IN =     9358845.0000              TOTAL IN =        5124.1367

          OUT:                                     OUT:
          ----                                     ----
             STORAGE =           0.0000               STORAGE =           0.0000
       CONSTANT HEAD =      736268.9375         CONSTANT HEAD =         403.0984
               WELLS =           0.0000                 WELLS =           0.0000
       RIVER LEAKAGE =     8622639.0000         RIVER LEAKAGE =        4721.0728
            RECHARGE =           0.0000              RECHARGE =           0.0000

           TOTAL OUT =     9358908.0000             TOTAL OUT =        5124.1714

            IN - OUT =         -63.0000              IN - OUT =      -3.4668E-02

 PERCENT DISCREPANCY =          -0.00     PERCENT DISCREPANCY =          -0.00






         TIME SUMMARY AT END OF TIME STEP    1 IN STRESS PERIOD    2
                    SECONDS     MINUTES      HOURS       DAYS        YEARS
                    -----------------------------------------------------------
   TIME STEP LENGTH 1.57680E+08 2.62800E+06  43800.      1825.0      4.9966    
 STRESS PERIOD TIME 1.57680E+08 2.62800E+06  43800.      1825.0      4.9966    
         TOTAL TIME 1.57766E+08 2.62944E+06  43824.      1826.0      4.9993    
1
1
                            STRESS PERIOD NO.    3, LENGTH =   1.000000    
                            -----------------------------------------------

                              NUMBER OF TIME STEPS =     1

                               MULTIPLIER FOR DELT =     1.000

                            INITIAL TIME STEP SIZE =   1.000000    

 WELL NO.  LAYER   ROW   COL   STRESS RATE         
 --------------------------------------------------
      1      1      9     16       119.4    
      2      1     11     13       86.14    
      3      1     20     14       101.1    
      4      1     26     10       133.1    
      5      1     29      6       139.8    
      6      1     34     12       113.2    

      6 WELLS

 REUSING NON-PARAMETER RIVER REACHES FROM LAST STRESS PERIOD

     40 RIVER REACHES

 OPENING FILE ON UNIT   99:
 rech_2.ref                                                                                                                                                                                              



                           RECHARGE
 READING ON UNIT   99 WITH FORMAT: (20G15.6)           

 SOLVING FOR HEAD 


    11 CALLS TO PCG ROUTINE FOR TIME STEP   1 IN STRESS PERIOD    3
   137 TOTAL ITERATIONS

 MAXIMUM HEAD CHANGE FOR EACH ITERATION (1 INDICATES THE FIRST INNER ITERATION):

    HEAD CHANGE    HEAD CHANGE    HEAD CHANGE    HEAD CHANGE    HEAD CHANGE 
   LAYER,ROW,COL  LAYER,ROW,COL  LAYER,ROW,COL  LAYER,ROW,COL  LAYER,ROW,COL
 ---------------------------------------------------------------------------
  1  -2.059      0  -2.034      0  -1.239      0 -0.6327      0 -0.3981    
   (  1,  9,  4)  (  1,  8,  5)  (  1,  2,  6)  (  1, 11,  3)  (  1, 19,  2)
  0 -0.1712      0 -0.1216      0  0.5735E-01  0  0.4684E-01  0 -0.2035E-01
   (  1, 16,  2)  (  1, 24,  1)  (  1, 34,  7)  (  1, 26, 10)  (  1,  4,  1)
  0  0.1986E-01  0  0.1604E-01  0 -0.9283E-02  0 -0.4737E-02  0 -0.1989E-02
   (  1, 34,  3)  (  1,  9,  4)  (  1,  9,  1)  (  1,  4,  1)  (  1, 20,  9)
  0  0.1290E-02  0 -0.7929E-03  0 -0.2571E-03  0 -0.1626E-03  0  0.1131E-03
   (  1, 25, 12)  (  1,  5,  2)  (  1, 14,  2)  (  1, 33, 13)  (  1,  9,  4)
  0 -0.5136E-04  0 -0.3158E-04  0 -0.1372E-04  0  0.1441E-04  0  0.5169E-05
   (  1,  9,  3)  (  1, 36, 14)  (  1, 33,  8)  (  1, 28,  3)  (  1, 10,  9)
  1 -0.2530      0 -0.4016      0 -0.1346      0 -0.7346E-01  0 -0.3812E-01
   (  1,  5,  5)  (  1,  9,  4)  (  1,  6,  3)  (  1,  1,  9)  (  1, 23,  3)
  0 -0.2241E-01  0 -0.1211E-01  0 -0.9082E-02  0  0.5648E-02  0 -0.3216E-02
   (  1, 34,  7)  (  1, 20,  4)  (  1, 25,  1)  (  1, 14,  9)  (  1, 13,  1)
  0 -0.2011E-02  0 -0.2952E-02  0  0.1430E-02  0 -0.4874E-03  0  0.2909E-03
   (  1,  8,  5)  (  1,  9,  3)  (  1, 15,  3)  (  1, 13,  1)  (  1, 25, 12)
  0  0.1166E-03  0  0.6976E-04  0 -0.4060E-04  0 -0.1869E-04  0 -0.1862E-04
   (  1, 27,  9)  (  1, 19,  9)  (  1, 21, 10)  (  1, 35,  6)  (  1,  9,  3)
  0 -0.1179E-04  0  0.4914E-05  1  0.9993E-01  0  0.4700E-01  0 -0.5786E-01
   (  1,  8,  5)  (  1,  8,  5)  (  1,  9,  4)  (  1,  8,  5)  (  1,  9,  8)
  0 -0.2209E-01  0  0.2150E-01  0  0.9394E-02  0  0.4061E-02  0  0.2946E-02
   (  1, 13,  2)  (  1, 14,  1)  (  1,  3,  1)  (  1, 26, 11)  (  1, 14,  2)
  0  0.1215E-02  0  0.1004E-02  0 -0.6654E-03  0  0.6456E-03  0  0.3285E-03
   (  1,  8,  5)  (  1, 29,  6)  (  1,  9,  3)  (  1, 10,  4)  (  1, 33,  2)
  0  0.2675E-03  0  0.9775E-04  0 -0.7390E-04  0  0.2439E-04  0  0.1202E-04
   (  1,  2,  1)  (  1, 24, 12)  (  1,  8,  5)  (  1,  4,  1)  (  1, 14,  9)
  0 -0.5691E-05  1  0.3441E-01  0  0.1774E-01  0 -0.1453E-01  0 -0.5388E-02
   (  1, 23,  2)  (  1,  9,  4)  (  1,  8,  5)  (  1,  9,  9)  (  1, 14,  9)
  0  0.7312E-02  0  0.3247E-02  0  0.2035E-02  0  0.1044E-02  0  0.5648E-03
   (  1, 14,  1)  (  1,  2,  1)  (  1,  2,  1)  (  1,  1,  3)  (  1, 19,  2)
  0 -0.2745E-03  0  0.1649E-03  0 -0.1900E-03  0  0.1549E-03  0  0.8280E-04
   (  1, 13,  1)  (  1, 28,  6)  (  1,  9,  4)  (  1,  9,  2)  (  1,  2,  1)
  0 -0.3061E-04  0 -0.2094E-04  0  0.9897E-05  1  0.9723E-02  0 -0.3807E-02
   (  1,  6,  9)  (  1,  8,  5)  (  1,  4,  1)  (  1,  9,  4)  (  1,  9,  3)
  0 -0.3244E-02  0 -0.1647E-02  0  0.1547E-02  0  0.9288E-03  0  0.7079E-03
   (  1,  9, 10)  (  1,  9, 11)  (  1, 21,  4)  (  1, 25,  1)  (  1,  2,  1)
  0  0.2877E-03  0  0.1139E-03  0  0.6115E-04  0 -0.5183E-04  0  0.4365E-04
   (  1,  1,  3)  (  1,  1,  2)  (  1, 26, 11)  (  1, 30,  1)  (  1,  9,  2)
  0 -0.4483E-04  0  0.1827E-04  0  0.8151E-05  1  0.1707E-02  0  0.2044E-02
   (  1,  9,  4)  (  1,  6,  1)  (  1, 33, 13)  (  1,  8,  5)  (  1,  9,  4)
  0 -0.1039E-02  0 -0.5372E-03  0  0.2844E-03  0  0.2542E-03  0  0.2011E-03
   (  1, 11,  3)  (  1,  9, 11)  (  1,  1,  7)  (  1, 27,  3)  (  1,  3,  1)
  0  0.5781E-04  0 -0.3015E-04  0  0.1687E-04  0 -0.1485E-04  0 -0.1611E-04
   (  1, 14,  9)  (  1, 23,  9)  (  1, 26, 11)  (  1, 34,  3)  (  1,  9,  4)
  0  0.1082E-04  0  0.6641E-05  1 -0.3372E-03  0  0.6245E-03  0 -0.2530E-03
   (  1,  9,  3)  (  1, 13,  1)  (  1,  9,  2)  (  1,  9,  4)  (  1, 11,  3)
  0  0.1550E-03  0  0.8318E-04  0  0.6408E-04  0  0.5159E-04  0  0.1797E-04
   (  1,  8,  1)  (  1,  1,  7)  (  1, 28,  3)  (  1,  5,  4)  (  1, 14,  9)
  0 -0.1379E-04  0  0.8084E-05  1 -0.1348E-03  0  0.1153E-03  0 -0.5598E-04
   (  1, 17,  3)  (  1, 13,  1)  (  1,  9,  3)  (  1,  9,  4)  (  1, 11,  3)
  0  0.4581E-04  0  0.2485E-04  0  0.2145E-04  0  0.1342E-04  0  0.5546E-05
   (  1,  8,  1)  (  1,  1,  9)  (  1,  6,  8)  (  1,  5,  2)  (  1, 33,  8)
  1 -0.4663E-04  0  0.2048E-04  0 -0.1563E-04  0  0.9763E-05  1 -0.1698E-04
   (  1,  9,  4)  (  1, 26, 10)  (  1, 26, 11)  (  1, 26, 10)  (  1,  9,  4)
  0 -0.8803E-05  1 -0.9039E-05
   (  1,  8,  5)  (  1, 10,  4)

 MAXIMUM RESIDUAL FOR EACH ITERATION (1 INDICATES THE FIRST INNER ITERATION):

    RESIDUAL       RESIDUAL       RESIDUAL       RESIDUAL       RESIDUAL    
   LAYER,ROW,COL  LAYER,ROW,COL  LAYER,ROW,COL  LAYER,ROW,COL  LAYER,ROW,COL
 ---------------------------------------------------------------------------
  1  -53.86      0  -46.51      0   42.85      0  -30.26      0  -22.63    
   (  1,  9,  3)  (  1,  4,  4)  (  1,  1,  9)  (  1, 23,  2)  (  1,  3, 12)
  0  -14.09      0   8.123      0  -6.281      0  -4.447      0   2.700    
   (  1,  3, 12)  (  1,  1, 15)  (  1, 26, 10)  (  1, 27,  9)  (  1,  1, 15)
  0   1.912      0   1.608      0   1.046      0  0.5387      0  0.3093    
   (  1,  1, 15)  (  1,  1, 15)  (  1,  1, 15)  (  1,  1, 15)  (  1,  1, 15)
  0  0.1721      0  0.8825E-01  0  0.4505E-01  0  0.2160E-01  0  0.1885E-01
   (  1,  1, 15)  (  1,  1, 15)  (  1,  1, 15)  (  1,  1, 15)  (  1,  1, 15)
  0  0.9499E-02  0  0.4773E-02  0  0.3438E-02  0  0.1881E-02  0  0.1065E-02
   (  1,  1, 15)  (  1,  1, 15)  (  1,  1, 15)  (  1,  1, 15)  (  1,  1, 15)
  1   11.41      0   10.37      0   7.685      0   5.727      0   3.199    
   (  1,  9,  3)  (  1, 19, 12)  (  1, 27, 15)  (  1,  4, 15)  (  1,  2, 15)
  0   1.877      0   1.409      0  0.9298      0  0.6109      0  0.4004    
   (  1,  1, 15)  (  1,  1, 15)  (  1,  1, 15)  (  1,  1, 15)  (  1,  1, 15)
  0  0.2953      0  0.2231      0  0.1474      0  0.8049E-01  0  0.4143E-01
   (  1,  1, 15)  (  1,  1, 15)  (  1,  1, 15)  (  1,  1, 15)  (  1,  1, 15)
  0  0.2329E-01  0  0.1104E-01  0  0.5836E-02  0  0.2744E-02  0  0.2343E-02
   (  1,  1, 15)  (  1,  1, 15)  (  1,  1, 15)  (  1,  1, 15)  (  1,  1, 15)
  0  0.1261E-02  0  0.6318E-03  1  -4.426      0   2.737      0   2.339    
   (  1,  1, 15)  (  1,  1, 15)  (  1, 29,  6)  (  1,  4,  4)  (  1, 27, 15)
  0   1.719      0  0.9996      0  0.6012      0 -0.5820      0  0.2283    
   (  1, 27, 15)  (  1, 18, 15)  (  1, 28, 15)  (  1, 27,  9)  (  1,  1, 15)
  0  0.1363      0  0.9942E-01  0  0.7509E-01  0  0.6140E-01  0  0.4102E-01
   (  1,  1, 15)  (  1, 28, 15)  (  1, 28, 15)  (  1, 28, 15)  (  1, 28, 15)
  0  0.2124E-01  0  0.1035E-01  0  0.5601E-02  0  0.2361E-02  0  0.1075E-02
   (  1, 28, 15)  (  1, 28, 15)  (  1, 28, 15)  (  1, 28, 15)  (  1, 27, 15)
  0  0.5409E-03  1  -1.328      0  0.8492      0  0.6909      0  0.5022    
   (  1, 27, 15)  (  1, 29,  6)  (  1,  4,  4)  (  1,  4, 10)  (  1, 27, 15)
  0  0.2896      0  0.1977      0  0.1204      0 -0.1009      0 -0.4944E-01
   (  1, 27, 15)  (  1, 28, 15)  (  1, 28, 15)  (  1, 27,  9)  (  1, 26, 10)
  0  0.2912E-01  0  0.2090E-01  0  0.1670E-01  0  0.1173E-01  0  0.6237E-02
   (  1, 28, 15)  (  1, 28, 15)  (  1, 28, 15)  (  1, 28, 15)  (  1, 28, 15)
  0  0.2837E-02  0  0.1595E-02  0  0.6648E-03  1 -0.2819      0  0.2089    
   (  1, 28, 15)  (  1, 28, 15)  (  1, 28, 15)  (  1, 29,  6)  (  1,  4,  4)
  0  0.2305      0  0.1420      0  0.8564E-01  0  0.5741E-01  0  0.3438E-01
   (  1,  4, 10)  (  1, 27, 15)  (  1, 27, 15)  (  1, 28, 15)  (  1, 28, 15)
  0 -0.2750E-01  0  0.1560E-01  0  0.7721E-02  0  0.5477E-02  0  0.3517E-02
   (  1, 27,  9)  (  1, 27,  9)  (  1, 28, 15)  (  1, 28, 15)  (  1, 28, 15)
  0  0.2508E-02  0  0.1288E-02  0  0.6587E-03  1  0.7061E-01  0  0.6900E-01
   (  1, 28, 15)  (  1, 28, 15)  (  1, 28, 15)  (  1, 27, 14)  (  1, 26, 11)
  0  0.6847E-01  0  0.4212E-01  0  0.2609E-01  0  0.1596E-01  0  0.9143E-02
   (  1,  4, 10)  (  1, 27, 15)  (  1, 27, 15)  (  1, 28, 15)  (  1, 28, 15)
  0 -0.5498E-02  0  0.3945E-02  0  0.1966E-02  0  0.1495E-02  0  0.1181E-02
   (  1, 27,  9)  (  1, 27,  9)  (  1, 28, 15)  (  1, 28, 15)  (  1, 28, 15)
  0  0.7449E-03  0  0.4135E-03  1 -0.2519E-01  0  0.2300E-01  0  0.2011E-01
   (  1, 28, 15)  (  1, 28, 15)  (  1, 26, 10)  (  1, 26, 11)  (  1, 21, 15)
  0  0.1319E-01  0  0.7958E-02  0  0.4375E-02  0 -0.2647E-02  0  0.1647E-02
   (  1, 27, 15)  (  1, 27, 15)  (  1, 27, 15)  (  1, 27,  9)  (  1,  4, 10)
  0  0.8764E-03  0  0.5192E-03  1  0.8660E-02  0  0.7074E-02  0 -0.6649E-02
   (  1,  4, 10)  (  1,  6, 15)  (  1, 32, 15)  (  1, 26, 11)  (  1, 26, 10)
  0  0.4102E-02  0  0.2487E-02  0  0.1053E-02  0  0.6251E-03  0  0.4730E-03
   (  1, 27, 15)  (  1, 27, 15)  (  1, 32, 15)  (  1, 32, 15)  (  1,  4, 10)
  1  0.3131E-02  0  0.2488E-02  0 -0.2432E-02  0  0.1394E-02  1  0.1889E-02
   (  1, 32, 15)  (  1, 32, 15)  (  1, 26, 10)  (  1, 32, 15)  (  1, 32, 15)
  0  0.1518E-02  1  0.1503E-02
   (  1, 32, 15)  (  1, 32, 15)



 OUTPUT CONTROL FOR STRESS PERIOD    3   TIME STEP    1
    SAVE HEAD FOR ALL LAYERS
    SAVE BUDGET
 UBDSV2 SAVING "   CONSTANT HEAD" ON UNIT  53 AT TIME STEP  1, STRESS PERIOD   3
 UBDSV1 SAVING "FLOW RIGHT FACE " ON UNIT  53 AT TIME STEP  1, STRESS PERIOD   3
 UBDSV1 SAVING "FLOW FRONT FACE " ON UNIT  53 AT TIME STEP  1, STRESS PERIOD   3

 HEAD WILL BE SAVED ON UNIT   51 AT END OF TIME STEP    1, STRESS PERIOD    3
1
  VOLUMETRIC BUDGET FOR ENTIRE MODEL AT END OF TIME STEP    1, STRESS PERIOD   3
  ------------------------------------------------------------------------------

     CUMULATIVE VOLUMES      L**3       RATES FOR THIS TIME STEP      L**3/T
     ------------------                 ------------------------

           IN:                                      IN:
           ---                                      ---
             STORAGE =     2563579.2500               STORAGE =           0.0000
       CONSTANT HEAD =           0.0000         CONSTANT HEAD =           0.0000
               WELLS =     1265531.1250                 WELLS =         692.7405
       RIVER LEAKAGE =      342426.5312         RIVER LEAKAGE =         243.4773
            RECHARGE =     5191083.5000              RECHARGE =        2839.2454

            TOTAL IN =     9362620.0000              TOTAL IN =        3775.4631

          OUT:                                     OUT:
          ----                                     ----
             STORAGE =           0.0000               STORAGE =           0.0000
       CONSTANT HEAD =      736511.9375         CONSTANT HEAD =         242.9921
               WELLS =           0.0000                 WELLS =           0.0000
       RIVER LEAKAGE =     8626172.0000         RIVER LEAKAGE =        3532.5120
            RECHARGE =           0.0000              RECHARGE =           0.0000

           TOTAL OUT =     9362684.0000             TOTAL OUT =        3775.5042

            IN - OUT =         -64.0000              IN - OUT =      -4.1016E-02

 PERCENT DISCREPANCY =          -0.00     PERCENT DISCREPANCY =          -0.00






         TIME SUMMARY AT END OF TIME STEP    1 IN STRESS PERIOD    3
                    SECONDS     MINUTES      HOURS       DAYS        YEARS
                    -----------------------------------------------------------
   TIME STEP LENGTH  86400.      1440.0      24.000      1.0000     2.73785E-03
 STRESS PERIOD TIME  86400.      1440.0      24.000      1.0000     2.73785E-03
         TOTAL TIME 1.57853E+08 2.63088E+06  43848.      1827.0      5.0021    
1

 Run end date and time (yyyy/mm/dd hh:mm:ss): 2016/06/06 21:42:28
 Elapsed run time:  0.020 Seconds

