                                  MODFLOW-NWT-SWR1 
      U.S. GEOLOGICAL SURVEY MODULAR FINITE-DIFFERENCE GROUNDWATER-FLOW MODEL
                            VERSION 1.0.9 07/01/2014
                    BASED ON MODFLOW-2005 VERSION 1.11.00 08/30/2013

 LIST FILE: freyberg.list
                         UNIT    2

 OPENING freyberg.dis
 FILE TYPE:DIS   UNIT   11   STATUS:OLD    
 FORMAT:FORMATTED              ACCESS:SEQUENTIAL          

 OPENING freyberg.upw
 FILE TYPE:LPF   UNIT   31   STATUS:OLD    
 FORMAT:FORMATTED              ACCESS:SEQUENTIAL          

 OPENING freyberg.bas
 FILE TYPE:BAS6   UNIT   13   STATUS:OLD    
 FORMAT:FORMATTED              ACCESS:SEQUENTIAL          

 OPENING freyberg.rch
 FILE TYPE:RCH   UNIT   19   STATUS:OLD    
 FORMAT:FORMATTED              ACCESS:SEQUENTIAL          

 OPENING freyberg.wel
 FILE TYPE:WEL   UNIT   20   STATUS:OLD    
 FORMAT:FORMATTED              ACCESS:SEQUENTIAL          

 OPENING freyberg.riv
 FILE TYPE:RIV   UNIT   18   STATUS:OLD    
 FORMAT:FORMATTED              ACCESS:SEQUENTIAL          

 OPENING freyberg.oc
 FILE TYPE:OC   UNIT   14   STATUS:OLD    
 FORMAT:FORMATTED              ACCESS:SEQUENTIAL          

 OPENING freyberg.hds
 FILE TYPE:DATA   UNIT   51   STATUS:REPLACE
 FORMAT:FORMATTED              ACCESS:SEQUENTIAL          

 OPENING freyberg.ddn
 FILE TYPE:DATA(BINARY)   UNIT   52   STATUS:REPLACE
 FORMAT:UNFORMATTED            ACCESS:STREAM              

 OPENING freyberg.cbc
 FILE TYPE:DATA(BINARY)   UNIT   53   STATUS:REPLACE
 FORMAT:UNFORMATTED            ACCESS:STREAM              

 OPENING freyberg.pcg
 FILE TYPE:PCG   UNIT   32   STATUS:OLD    
 FORMAT:FORMATTED              ACCESS:SEQUENTIAL          

 BAS -- BASIC PACKAGE, VERSION 7, 5/2/2005 INPUT READ FROM UNIT   13

 MODFLOW was compiled using mixed precision
 Precision of REAL variables:           6
 Precision of DOUBLE PRECISION variables:          15

 DISCRETIZATION INPUT DATA READ FROM UNIT   11
 # Discretization file for MODFLOW, generated by Flopy.
    1 LAYERS        40 ROWS        20 COLUMNS
    3 STRESS PERIOD(S) IN SIMULATION
 MODEL TIME UNIT IS DAYS
 MODEL LENGTH UNIT IS METERS
  Confining bed flag for each layer:
   0



                               DELR
 READING ON UNIT   11 WITH FORMAT: (20G15.6)           



                               DELC
 READING ON UNIT   11 WITH FORMAT: (40G15.6)           

 TOP ELEVATION OF LAYER 1 =   35.0000    

 OPENING FILE ON UNIT   99:
 botm.ref                                                                                                                                                                                                



             MODEL LAYER BOTTOM EL. FOR LAYER   1
 READING ON UNIT   99 WITH FORMAT: (10E12.4)           


 STRESS PERIOD     LENGTH       TIME STEPS     MULTIPLIER FOR DELT    SS FLAG
 ----------------------------------------------------------------------------
        1         1.000000          1                    1.000         SS
        2         1825.000          1                    1.000         TR
        3         1.000000          1                    1.000         SS

 COMBINED STEADY-STATE AND TRANSIENT SIMULATION




 # Basic package file for MODFLOW, generated by Flopy.                           
 THE FREE FORMAT OPTION HAS BEEN SELECTED

 OPENING FILE ON UNIT   99:
 ibound.ref                                                                                                                                                                                              



                     BOUNDARY ARRAY FOR LAYER   1
 READING ON UNIT   99 WITH FORMAT: (25I3)              

 AQUIFER HEAD WILL BE SET TO  -999.99     AT ALL NO-FLOW NODES (IBOUND=0).

 OPENING FILE ON UNIT   99:
 strt.ref                                                                                                                                                                                                



                       INITIAL HEAD FOR LAYER   1
 READING ON UNIT   99 WITH FORMAT: (10E12.4)           
 # Output control package file for MODFLOW, generated by Flopy.

 OUTPUT CONTROL IS SPECIFIED ONLY AT TIME STEPS FOR WHICH OUTPUT IS DESIRED
 HEADS WILL BE SAVED WITH FORMAT: (20E15.6)           
 COMPACT CELL-BY-CELL BUDGET FILES WILL BE WRITTEN
 AUXILIARY DATA WILL BE SAVED IN CELL-BY-CELL BUDGET FILES
 HEAD PRINT FORMAT CODE IS   0    DRAWDOWN PRINT FORMAT CODE IS   0
 HEADS WILL BE SAVED ON UNIT   51    DRAWDOWNS WILL BE SAVED ON UNIT   52

 LPF -- LAYER-PROPERTY FLOW PACKAGE, VERSION 7, 5/2/2005
         INPUT READ FROM UNIT   31
 # UPW for MODFLOW-NWT, generated by Flopy.
 CELL-BY-CELL FLOWS WILL BE SAVED ON UNIT   53
 HEAD AT CELLS THAT CONVERT TO DRY= -1.00000E+30
 No named parameters

   LAYER FLAGS:
 LAYER       LAYTYP        LAYAVG         CHANI        LAYVKA        LAYWET
 ---------------------------------------------------------------------------
    1             1             0     1.000E+00             0             0

   INTERPRETATION OF LAYER FLAGS:
                        INTERBLOCK     HORIZONTAL    DATA IN
         LAYER TYPE   TRANSMISSIVITY   ANISOTROPY   ARRAY VKA   WETTABILITY
 LAYER      (LAYTYP)      (LAYAVG)       (CHANI)      (LAYVKA)      (LAYWET)
 ---------------------------------------------------------------------------
    1   CONVERTIBLE      HARMONIC     1.000E+00    VERTICAL K  NON-WETTABLE

 WETTING CAPABILITY IS NOT ACTIVE IN ANY LAYER

 OPENING FILE ON UNIT   99:
 hk_Layer_1.ref                                                                                                                                                                                          



              HYD. COND. ALONG ROWS FOR LAYER   1
 READING ON UNIT   99 WITH FORMAT: (20G15.6)           

      VERTICAL HYD. COND. =   1.00000     FOR LAYER   1

 OPENING FILE ON UNIT   99:
 ss_Layer_1.ref                                                                                                                                                                                          



                   SPECIFIC STORAGE FOR LAYER   1
 READING ON UNIT   99 WITH FORMAT: (20G15.6)           

           SPECIFIC YIELD =  0.120038     FOR LAYER   1

 WEL -- WELL PACKAGE, VERSION 1.0.6, 12/05/2012 INPUT READ FROM UNIT   20
 # Well file for MODFLOW, generated by Flopy.
 No named parameters
 MAXIMUM OF      6 ACTIVE WELLS AT ONE TIME
 No named parameters


     0 Well parameters

 RIV -- RIVER PACKAGE, VERSION 7, 5/2/2005 INPUT READ FROM UNIT   18
 # RIV for MODFLOW, generated by Flopy.
 No named parameters
 MAXIMUM OF     40 ACTIVE RIVER REACHES AT ONE TIME


     0 River parameters

 RCH -- RECHARGE PACKAGE, VERSION 7, 5/2/2005 INPUT READ FROM UNIT   19
 # RCH for MODFLOW, generated by Flopy.
 No named parameters
 OPTION 3 -- RECHARGE TO HIGHEST ACTIVE NODE IN EACH VERTICAL COLUMN


     0 Recharge parameters

 PCG -- CONJUGATE-GRADIENT SOLUTION PACKAGE, VERSION 7, 5/2/2005
 MAXIMUM OF    100 CALLS OF SOLUTION ROUTINE
 MAXIMUM OF     25 INTERNAL ITERATIONS PER CALL TO SOLUTION ROUTINE
 MATRIX PRECONDITIONING TYPE :    1
 IHCOFADD option -- When an active cell is surrounded by dry cells, convert
 the cell to dry only if storage and head-dependent boundary flow are 0.



                                    SOLUTION BY THE CONJUGATE-GRADIENT METHOD
                                   -------------------------------------------
                    MAXIMUM NUMBER OF CALLS TO PCG ROUTINE =      100
                        MAXIMUM ITERATIONS PER CALL TO PCG =       25
                               MATRIX PRECONDITIONING TYPE =        1
        RELAXATION FACTOR (ONLY USED WITH PRECOND. TYPE 1) =    0.10000E+01
 PARAMETER OF POLYNOMIAL PRECOND. = 2 (2) OR IS CALCULATED :        2
                         HEAD CHANGE CRITERION FOR CLOSURE =    0.10000E-04
                     RESIDUAL CHANGE CRITERION FOR CLOSURE =    0.10000E+00
            PCG HEAD AND RESIDUAL CHANGE PRINTOUT INTERVAL =        5
     PRINTING FROM SOLVER IS LIMITED(1) OR SUPPRESSED (>1) =        0
                            STEADY-STATE DAMPING PARAMETER =    0.70000E+00
                               TRANSIENT DAMPING PARAMETER =    0.70000E+00
1
                            STRESS PERIOD NO.    1, LENGTH =   1.000000    
                            -----------------------------------------------

                              NUMBER OF TIME STEPS =     1

                               MULTIPLIER FOR DELT =     1.000

                            INITIAL TIME STEP SIZE =   1.000000    

 WELL NO.  LAYER   ROW   COL   STRESS RATE         
 --------------------------------------------------
      1      1      9     16       105.2    
      2      1     11     13       100.8    
      3      1     20     14       95.19    
      4      1     26     10       95.77    
      5      1     29      6       104.3    
      6      1     34     12       96.19    

      6 WELLS

 REACH NO.  LAYER   ROW   COL     STAGE      CONDUCTANCE     BOTTOM EL.         
 -------------------------------------------------------------------------------
      1      1      1     15       20.10           3126.           20.00    
      2      1      2     15       19.87           570.6           19.75    
      3      1      3     15       19.65           2471.           19.50    
      4      1      4     15       19.42           1677.           19.25    
      5      1      5     15       19.19           2901.           19.00    
      6      1      6     15       18.97           351.5           18.75    
      7      1      7     15       18.74           821.7           18.50    
      8      1      8     15       18.51           1035.           18.25    
      9      1      9     15       18.28           7018.           18.00    
     10      1     10     15       19.06           958.8           17.75    
     11      1     11     15       17.83          0.1547E+05       17.50    
     12      1     12     15       17.60           2750.           17.25    
     13      1     13     15       17.38           4442.           17.00    
     14      1     14     15       17.15           2033.           16.75    
     15      1     15     15       16.92           1058.           16.50    
     16      1     16     15       16.70           6159.           16.25    
     17      1     17     15       16.47           2308.           16.00    
     18      1     18     15       16.24          0.5341E+05       15.75    
     19      1     19     15       16.02          0.2989E+05       15.50    
     20      1     20     15       15.79          0.2955E+05       15.25    
     21      1     21     15       15.56          0.2272E+05       15.00    
     22      1     22     15       15.33           1985.           14.75    
     23      1     23     15       15.11           198.8           14.50    
     24      1     24     15       14.88          0.1133E+05       14.25    
     25      1     25     15       14.65           3933.           14.00    
     26      1     26     15       14.43           571.4           13.75    
     27      1     27     15       14.20           1430.           13.50    
     28      1     28     15       13.97          0.1212E+05       13.25    
     29      1     29     15       13.75           4656.           13.00    
     30      1     30     15       13.52           4098.           12.75    
     31      1     31     15       13.29          0.1303E+05       12.50    
     32      1     32     15       13.07           4172.           12.25    
     33      1     33     15       12.84           873.7           12.00    
     34      1     34     15       12.61           5596.           11.75    
     35      1     35     15       12.38           1960.           11.50    
     36      1     36     15       12.16           4543.           11.25    
     37      1     37     15       11.93           3947.           11.00    
     38      1     38     15       11.70           4573.           10.75    
     39      1     39     15       11.48          0.1228E+05       10.50    
     40      1     40     15       11.25          0.8461E+05       10.25    

     40 RIVER REACHES

 OPENING FILE ON UNIT   99:
 rech_0.ref                                                                                                                                                                                              



                           RECHARGE
 READING ON UNIT   99 WITH FORMAT: (20G15.6)           

 SOLVING FOR HEAD 


    16 CALLS TO PCG ROUTINE FOR TIME STEP   1 IN STRESS PERIOD    1
   242 TOTAL ITERATIONS

 MAXIMUM HEAD CHANGE FOR EACH ITERATION (1 INDICATES THE FIRST INNER ITERATION):

    HEAD CHANGE    HEAD CHANGE    HEAD CHANGE    HEAD CHANGE    HEAD CHANGE 
   LAYER,ROW,COL  LAYER,ROW,COL  LAYER,ROW,COL  LAYER,ROW,COL  LAYER,ROW,COL
 ---------------------------------------------------------------------------
  1  -72.38      0  -67.95      0  -34.12      0   31.15      0  -13.23    
   (  1, 39, 13)  (  1,  9,  4)  (  1,  8,  5)  (  1,  8,  5)  (  1,  8,  5)
  0   4.363      0   1.923      0  -1.971      0 -0.5720      0  0.3465    
   (  1, 39,  8)  (  1, 19,  4)  (  1, 15,  1)  (  1, 26,  6)  (  1, 35, 12)
  0 -0.2403      0  0.1440      0 -0.9570E-01  0 -0.5286E-01  0 -0.3775E-01
   (  1, 12,  4)  (  1,  9,  4)  (  1, 25,  9)  (  1, 31,  6)  (  1, 34,  3)
  0 -0.2886E-01  0  0.1806E-01  0  0.4516E-02  0 -0.3546E-02  0  0.2424E-02
   (  1,  8,  4)  (  1,  8,  5)  (  1,  4,  4)  (  1,  4,  5)  (  1,  8,  5)
  0  0.2299E-02  0  0.1053E-02  0  0.5082E-03  0 -0.2076E-03  0  0.2200E-03
   (  1,  9,  4)  (  1, 24,  4)  (  1, 28,  3)  (  1, 33,  7)  (  1, 30,  2)
  1   19.63      0  -22.83      0  -14.07      0   7.154      0  -2.657    
   (  1,  9,  4)  (  1,  9,  4)  (  1,  8,  5)  (  1,  8,  5)  (  1,  9,  4)
  0   1.323      0 -0.6713      0 -0.4399      0 -0.1627      0 -0.1541    
   (  1, 39,  8)  (  1, 33,  2)  (  1, 18,  2)  (  1, 23,  7)  (  1, 18,  4)
  0 -0.8997E-01  0 -0.5935E-01  0 -0.3370E-01  0 -0.2029E-01  0 -0.1223E-01
   (  1, 11,  4)  (  1,  8,  5)  (  1, 35,  6)  (  1, 27,  6)  (  1,  8,  5)
  0  0.1278E-01  0 -0.6735E-02  0 -0.2750E-02  0 -0.9757E-03  0  0.7189E-03
   (  1,  8,  3)  (  1,  9,  4)  (  1, 33,  5)  (  1, 35,  6)  (  1,  8,  5)
  0  0.7412E-03  0  0.3244E-03  0  0.1395E-03  0  0.9680E-04  0  0.5174E-04
   (  1,  9,  4)  (  1, 27,  3)  (  1, 20,  4)  (  1, 28,  2)  (  1, 30,  2)
  1   15.90      0  -11.96      0  -6.415      0  -2.002      0 -0.6841    
   (  1,  9,  4)  (  1,  9,  4)  (  1,  8,  5)  (  1,  5,  6)  (  1, 27,  2)
  0  0.4364      0 -0.3026      0 -0.1696      0 -0.1278      0 -0.6443E-01
   (  1, 39, 13)  (  1, 31,  1)  (  1, 25,  3)  (  1, 20,  4)  (  1, 11,  4)
  0 -0.4678E-01  0 -0.2549E-01  0 -0.1361E-01  0  0.5919E-02  0  0.4848E-02
   (  1, 16,  4)  (  1,  8,  5)  (  1, 35,  6)  (  1, 38, 13)  (  1,  8,  3)
  0 -0.4299E-02  0 -0.1210E-02  0 -0.7284E-03  0 -0.3164E-03  0  0.2708E-03
   (  1,  8,  5)  (  1, 25,  9)  (  1, 28,  7)  (  1, 30, 14)  (  1,  8,  5)
  0  0.2959E-03  0  0.1021E-03  0 -0.4636E-04  0  0.2490E-04  0 -0.1826E-04
   (  1,  9,  4)  (  1, 15, 11)  (  1, 33,  7)  (  1, 30,  5)  (  1,  4,  7)
  1   2.254      0  -1.475      0  -1.213      0 -0.3575      0 -0.3695    
   (  1,  8,  5)  (  1,  8,  5)  (  1,  9,  4)  (  1, 30,  6)  (  1,  8,  5)
  0  0.2010      0 -0.1607      0 -0.7230E-01  0 -0.2353E-01  0 -0.2582E-01
   (  1,  9,  4)  (  1,  9,  4)  (  1, 20,  4)  (  1, 18,  9)  (  1, 19,  4)
  0 -0.1626E-01  0 -0.5998E-02  0 -0.4838E-02  0  0.2635E-02  0 -0.1077E-02
   (  1, 34,  3)  (  1,  9,  4)  (  1, 35,  6)  (  1, 38, 13)  (  1, 29,  7)
  0 -0.8017E-03  0 -0.4004E-03  0  0.2168E-03  0 -0.2606E-03  0  0.9549E-04
   (  1, 25,  9)  (  1, 30,  8)  (  1,  8,  5)  (  1,  8,  5)  (  1,  8,  5)
  0  0.7306E-04  0  0.3563E-04  0 -0.2341E-04  0 -0.1184E-04  0  0.5668E-05
   (  1,  9,  4)  (  1, 36, 11)  (  1, 33,  5)  (  1, 30, 12)  (  1, 27, 11)
  1  -1.142      0   1.250      0  0.6539      0 -0.3352      0 -0.1069    
   (  1,  9,  4)  (  1,  9,  4)  (  1,  8,  5)  (  1,  8,  5)  (  1, 27,  1)
  0 -0.6466E-01  0  0.3537E-01  0 -0.2898E-01  0 -0.1188E-01  0 -0.6830E-02
   (  1, 16, 10)  (  1, 20,  4)  (  1, 19,  4)  (  1, 22, 11)  (  1,  9,  4)
  0 -0.4196E-02  0 -0.3143E-02  0 -0.1730E-02  0 -0.8763E-03  0 -0.7598E-03
   (  1,  8,  5)  (  1, 13,  4)  (  1, 27,  6)  (  1, 22,  8)  (  1,  8,  1)
  0  0.4340E-03  0 -0.2318E-03  0  0.1002E-03  0 -0.7222E-04  0  0.3498E-04
   (  1,  8,  5)  (  1,  9,  4)  (  1, 11,  4)  (  1,  8,  1)  (  1,  9,  4)
  0  0.3193E-04  0  0.1316E-04  0 -0.1044E-04  0  0.2981E-05  1 -0.4810    
   (  1,  8,  5)  (  1, 36, 11)  (  1, 33,  5)  (  1, 17, 12)  (  1,  9,  4)
  0  0.4615      0  0.2556      0 -0.1031      0 -0.3613E-01  0 -0.2393E-01
   (  1,  9,  4)  (  1,  8,  5)  (  1, 27, 11)  (  1, 27,  2)  (  1, 16, 10)
  0  0.1501E-01  0 -0.7818E-02  0 -0.4020E-02  0 -0.2641E-02  0 -0.1669E-02
   (  1, 20,  4)  (  1, 20,  4)  (  1, 22, 11)  (  1, 34,  3)  (  1,  8,  5)
  0 -0.8963E-03  0  0.4692E-03  0 -0.2449E-03  0 -0.1709E-03  0  0.1315E-03
   (  1,  9,  4)  (  1,  9,  4)  (  1, 10, 10)  (  1,  8,  1)  (  1, 11,  4)
  0 -0.9235E-04  0 -0.3380E-04  0 -0.2076E-04  0  0.1316E-04  0  0.1234E-04
   (  1,  8,  4)  (  1,  4,  5)  (  1, 15,  4)  (  1,  9,  4)  (  1,  8,  5)
  0  0.4018E-05  1 -0.1101      0  0.1165      0  0.7093E-01  0 -0.3927E-01
   (  1,  8,  1)  (  1,  9,  4)  (  1,  9,  4)  (  1,  8,  5)  (  1,  8,  5)
  0 -0.1191E-01  0 -0.8332E-02  0  0.4487E-02  0 -0.2632E-02  0 -0.1215E-02
   (  1, 30,  6)  (  1, 15, 10)  (  1, 20,  4)  (  1, 20,  4)  (  1, 22, 11)
  0 -0.6430E-03  0 -0.5979E-03  0 -0.3009E-03  0 -0.1515E-03  0  0.8808E-04
   (  1, 34,  3)  (  1,  9,  4)  (  1,  8,  5)  (  1, 17,  4)  (  1, 33, 13)
  0 -0.4040E-04  0 -0.5678E-04  0  0.3284E-04  0 -0.1290E-04  0 -0.7463E-05
   (  1, 16, 13)  (  1,  8,  5)  (  1, 11,  4)  (  1,  9,  4)  (  1,  8,  1)
  1  0.1848E-01  0  0.2497E-01  0  0.1929E-01  0 -0.1414E-01  0 -0.3319E-02
   (  1, 30, 13)  (  1,  8,  5)  (  1,  9,  4)  (  1,  9,  4)  (  1, 29,  5)
  0 -0.2591E-02  0 -0.1000E-02  0 -0.5179E-03  0 -0.3912E-03  0 -0.1856E-03
   (  1, 15, 10)  (  1, 20, 13)  (  1, 26,  6)  (  1, 22, 11)  (  1, 34,  3)
  0 -0.1576E-03  0 -0.1090E-03  0  0.3420E-04  0  0.3057E-04  0 -0.1470E-04
   (  1,  8,  5)  (  1,  9,  1)  (  1, 15, 12)  (  1, 33, 13)  (  1, 27, 11)
  0 -0.6386E-05  1  0.7255E-02  0 -0.7644E-02  0 -0.5983E-02  0  0.3883E-02
   (  1, 33, 10)  (  1, 11,  4)  (  1,  9,  4)  (  1,  8,  5)  (  1,  8,  5)
  0 -0.1460E-02  0 -0.6570E-03  0 -0.2719E-03  0 -0.1916E-03  0 -0.1603E-03
   (  1,  9,  4)  (  1, 17, 12)  (  1, 15,  3)  (  1, 27, 11)  (  1, 21, 11)
  0  0.5670E-04  0 -0.5021E-04  0 -0.4819E-04  0  0.1275E-04  0 -0.8541E-05
   (  1,  9,  4)  (  1,  9,  4)  (  1,  8,  5)  (  1,  9,  4)  (  1, 15, 11)
  1  0.4075E-02  0 -0.3592E-02  0 -0.2492E-02  0 -0.1079E-02  0  0.4398E-03
   (  1,  9,  4)  (  1,  9,  4)  (  1,  8,  5)  (  1, 30, 14)  (  1, 19,  4)
  0 -0.2283E-03  0 -0.7651E-04  0 -0.4533E-04  0 -0.4943E-04  0 -0.1941E-04
   (  1, 17, 12)  (  1, 25,  6)  (  1, 30,  6)  (  1, 22, 11)  (  1, 27,  6)
  0 -0.1355E-04  0  0.1093E-04  0  0.4508E-05  1  0.1502E-02  0 -0.1253E-02
   (  1,  9,  4)  (  1,  9,  4)  (  1, 27, 11)  (  1,  9,  4)  (  1,  9,  4)
  0 -0.8438E-03  0 -0.3459E-03  0 -0.1086E-03  0 -0.6356E-04  0 -0.4321E-04
   (  1,  8,  5)  (  1, 30, 14)  (  1, 30, 14)  (  1, 17, 12)  (  1, 20,  4)
  0 -0.1943E-04  0 -0.1548E-04  0 -0.5762E-05  1  0.4569E-03  0 -0.3811E-03
   (  1, 22,  2)  (  1, 27, 11)  (  1, 21, 11)  (  1,  9,  4)  (  1,  9,  4)
  0 -0.2701E-03  0 -0.9693E-04  0 -0.4767E-04  0  0.2130E-04  0 -0.1254E-04
   (  1,  8,  5)  (  1, 30, 14)  (  1, 30, 14)  (  1, 26,  6)  (  1, 16, 12)
  0 -0.5614E-05  1  0.1362E-03  0 -0.1217E-03  0 -0.8173E-04  0  0.3944E-04
   (  1, 22,  2)  (  1,  9,  4)  (  1,  9,  4)  (  1,  8,  5)  (  1,  8,  5)
  0 -0.2200E-04  0  0.7916E-05  1  0.2871E-04  0 -0.2703E-04  0  0.1628E-04
   (  1, 30, 14)  (  1, 26,  6)  (  1, 30, 14)  (  1,  9,  4)  (  1,  8,  4)
  0 -0.1026E-04  0 -0.4454E-05  1  0.1095E-04  0  0.1467E-04  0 -0.1354E-04
   (  1,  8,  1)  (  1,  8,  5)  (  1,  8,  5)  (  1,  8,  1)  (  1,  8,  4)
  0  0.5887E-05  1  0.3260E-05
   (  1,  9,  4)  (  1,  8,  5)

 MAXIMUM RESIDUAL FOR EACH ITERATION (1 INDICATES THE FIRST INNER ITERATION):

    RESIDUAL       RESIDUAL       RESIDUAL       RESIDUAL       RESIDUAL    
   LAYER,ROW,COL  LAYER,ROW,COL  LAYER,ROW,COL  LAYER,ROW,COL  LAYER,ROW,COL
 ---------------------------------------------------------------------------
  1  0.2957E+05  0  0.1567E+05  0   8092.      0   4210.      0  -2316.    
   (  1, 18, 15)  (  1, 18, 15)  (  1, 18, 15)  (  1, 18, 15)  (  1, 35, 12)
  0   844.8      0  -591.7      0  -379.1      0  -221.3      0   132.9    
   (  1, 38, 10)  (  1, 38, 15)  (  1, 38, 15)  (  1, 38, 15)  (  1, 18, 15)
  0   79.82      0   72.29      0   42.68      0   26.83      0   12.62    
   (  1, 18, 15)  (  1, 18, 15)  (  1, 18, 15)  (  1, 18, 15)  (  1, 18, 15)
  0   8.206      0   5.634      0   3.433      0   1.776      0  0.9605    
   (  1, 18, 15)  (  1, 18, 15)  (  1, 18, 15)  (  1, 18, 15)  (  1, 18, 15)
  0  0.7751      0  0.4312      0  0.2832      0  0.1619      0  0.6901E-01
   (  1, 18, 15)  (  1, 18, 15)  (  1, 18, 15)  (  1, 18, 15)  (  1, 18, 15)
  1   6852.      0   3691.      0   2164.      0   1036.      0  -476.8    
   (  1, 18, 15)  (  1, 18, 15)  (  1, 18, 15)  (  1, 18, 15)  (  1, 35, 12)
  0  -188.0      0  -113.6      0  -67.85      0   40.29      0   27.65    
   (  1, 39,  8)  (  1, 38, 15)  (  1, 38, 15)  (  1, 18, 15)  (  1, 18, 15)
  0   20.55      0   16.26      0   9.861      0   6.119      0   4.396    
   (  1, 18, 15)  (  1, 18, 15)  (  1, 18, 15)  (  1, 18, 15)  (  1, 18, 15)
  0   2.957      0   1.642      0   1.015      0  0.5356      0  0.3027    
   (  1, 18, 15)  (  1, 18, 15)  (  1, 18, 15)  (  1, 18, 15)  (  1, 18, 15)
  0  0.2230      0  0.1249      0  0.8588E-01  0  0.4754E-01  0  0.2186E-01
   (  1, 18, 15)  (  1, 18, 15)  (  1, 18, 15)  (  1, 18, 15)  (  1, 18, 15)
  1   3564.      0   1302.      0   758.2      0   299.7      0   137.1    
   (  1, 18, 15)  (  1, 18, 15)  (  1, 18, 15)  (  1, 18, 15)  (  1, 18, 15)
  0   61.11      0   35.43      0   20.92      0   13.19      0   7.508    
   (  1, 18, 15)  (  1, 18, 15)  (  1, 18, 15)  (  1, 18, 15)  (  1, 18, 15)
  0   4.784      0   3.984      0   2.367      0   1.374      0   1.004    
   (  1, 18, 15)  (  1, 18, 15)  (  1, 18, 15)  (  1, 18, 15)  (  1, 18, 15)
  0  0.6915      0  0.3968      0  0.2688      0  0.1601      0  0.1390    
   (  1, 18, 15)  (  1, 18, 15)  (  1, 18, 15)  (  1, 18, 15)  (  1, 18, 15)
  0  0.7101E-01  0  0.3741E-01  0  0.2084E-01  0  0.1511E-01  0  0.7848E-02
   (  1, 18, 15)  (  1, 18, 15)  (  1, 18, 15)  (  1, 18, 15)  (  1, 18, 15)
  1   707.9      0   486.0      0   157.5      0   81.40      0   43.20    
   (  1, 18, 15)  (  1, 18, 15)  (  1, 18, 15)  (  1, 18, 15)  (  1, 18, 15)
  0   25.20      0   13.01      0   6.747      0   4.297      0   2.587    
   (  1, 18, 15)  (  1, 18, 15)  (  1, 18, 15)  (  1, 18, 15)  (  1, 18, 15)
  0   1.378      0   1.236      0  0.7516      0  0.4535      0  0.2776    
   (  1, 18, 15)  (  1, 18, 15)  (  1, 18, 15)  (  1, 18, 15)  (  1, 18, 15)
  0  0.1663      0  0.9838E-01  0  0.6798E-01  0  0.5406E-01  0  0.2944E-01
   (  1, 18, 15)  (  1, 18, 15)  (  1, 18, 15)  (  1, 18, 15)  (  1, 18, 15)
  0  0.2516E-01  0  0.1352E-01  0  0.9204E-02  0  0.5833E-02  0  0.2830E-02
   (  1, 18, 15)  (  1, 18, 15)  (  1, 18, 15)  (  1, 18, 15)  (  1, 18, 15)
  1   657.6      0   256.3      0   149.0      0   48.09      0   22.32    
   (  1, 18, 15)  (  1, 18, 15)  (  1, 18, 15)  (  1, 18, 15)  (  1, 18, 15)
  0   10.25      0   5.414      0   2.617      0   1.489      0  0.8895    
   (  1, 18, 15)  (  1, 18, 15)  (  1, 18, 15)  (  1, 18, 15)  (  1, 18, 15)
  0  0.5703      0  0.4370      0  0.2644      0  0.1576      0  0.1022    
   (  1, 18, 15)  (  1, 18, 15)  (  1, 18, 15)  (  1, 18, 15)  (  1, 18, 15)
  0  0.8430E-01  0  0.4913E-01  0  0.3141E-01  0  0.1867E-01  0  0.1645E-01
   (  1, 18, 15)  (  1, 18, 15)  (  1, 18, 15)  (  1, 18, 15)  (  1, 18, 15)
  0  0.9373E-02  0  0.5098E-02  0  0.2614E-02  0  0.1276E-02  1   274.1    
   (  1, 18, 15)  (  1, 18, 15)  (  1, 18, 15)  (  1, 18, 15)  (  1, 18, 15)
  0   111.1      0   66.50      0   19.98      0   8.878      0   3.970    
   (  1, 18, 15)  (  1, 18, 15)  (  1, 18, 15)  (  1, 18, 15)  (  1, 18, 15)
  0   1.949      0  0.9498      0  0.5148      0  0.2919      0  0.1720    
   (  1, 18, 15)  (  1, 18, 15)  (  1, 18, 15)  (  1, 18, 15)  (  1, 18, 15)
  0  0.1492      0  0.9520E-01  0  0.5634E-01  0  0.3439E-01  0  0.2219E-01
   (  1, 18, 15)  (  1, 18, 15)  (  1, 18, 15)  (  1, 18, 15)  (  1, 18, 15)
  0  0.1702E-01  0  0.1076E-01  0  0.6407E-02  0  0.4737E-02  0  0.3253E-02
   (  1, 18, 15)  (  1, 18, 15)  (  1, 18, 15)  (  1, 18, 15)  (  1, 18, 15)
  0  0.1795E-02  1   66.89      0   36.80      0   23.82      0   7.123    
   (  1, 18, 15)  (  1, 18, 15)  (  1, 18, 15)  (  1, 18, 15)  (  1, 18, 15)
  0   3.258      0   1.383      0  0.6215      0  0.3196      0  0.1751    
   (  1, 18, 15)  (  1, 18, 15)  (  1, 18, 15)  (  1, 18, 15)  (  1, 18, 15)
  0  0.1018      0  0.5972E-01  0  0.5227E-01  0  0.3336E-01  0  0.1928E-01
   (  1, 18, 15)  (  1, 18, 15)  (  1, 18, 15)  (  1, 18, 15)  (  1, 18, 15)
  0  0.1327E-01  0  0.1081E-01  0  0.6613E-02  0  0.3940E-02  0  0.2178E-02
   (  1, 18, 15)  (  1, 18, 15)  (  1, 18, 15)  (  1, 18, 15)  (  1, 18, 15)
  1   16.72      0   11.58      0   5.739      0   2.220      0   1.081    
   (  1, 18, 15)  (  1, 18, 15)  (  1, 18, 15)  (  1, 18, 15)  (  1, 18, 15)
  0  0.4463      0  0.1877      0  0.8689E-01  0  0.4913E-01  0  0.2801E-01
   (  1, 18, 15)  (  1, 18, 15)  (  1, 18, 15)  (  1, 18, 15)  (  1, 18, 15)
  0  0.1980E-01  0  0.1606E-01  0  0.1053E-01  0  0.6235E-02  0  0.4054E-02
   (  1, 18, 15)  (  1, 18, 15)  (  1, 18, 15)  (  1, 18, 15)  (  1, 18, 15)
  0  0.2540E-02  1   7.012      0   4.446      0   1.718      0  0.7199    
   (  1, 18, 15)  (  1, 18, 15)  (  1, 18, 15)  (  1, 18, 15)  (  1, 18, 15)
  0  0.3190      0  0.1436      0  0.7351E-01  0  0.3335E-01  0  0.1725E-01
   (  1, 18, 15)  (  1, 18, 15)  (  1, 18, 15)  (  1, 18, 15)  (  1, 18, 15)
  0  0.9733E-02  0  0.8161E-02  0  0.5112E-02  0  0.3099E-02  0  0.1904E-02
   (  1, 18, 15)  (  1, 18, 15)  (  1, 18, 15)  (  1, 18, 15)  (  1, 18, 15)
  1   3.070      0   1.558      0  0.9528      0  0.2672      0  0.1047    
   (  1, 18, 15)  (  1, 18, 15)  (  1, 18, 15)  (  1, 18, 15)  (  1, 18, 15)
  0  0.4077E-01  0  0.1864E-01  0  0.1056E-01  0  0.5475E-02  0  0.3229E-02
   (  1, 18, 15)  (  1, 18, 15)  (  1, 18, 15)  (  1, 18, 15)  (  1, 18, 15)
  0  0.2686E-02  0  0.1643E-02  0  0.9379E-03  1   1.093      0  0.5390    
   (  1, 18, 15)  (  1, 18, 15)  (  1, 18, 15)  (  1, 18, 15)  (  1, 18, 15)
  0  0.3447      0  0.1036      0  0.4040E-01  0  0.1902E-01  0  0.9544E-02
   (  1, 18, 15)  (  1, 18, 15)  (  1, 18, 15)  (  1, 18, 15)  (  1, 18, 15)
  0  0.3797E-02  0  0.2001E-02  0  0.1105E-02  1  0.3255      0  0.1787    
   (  1, 18, 15)  (  1, 18, 15)  (  1, 18, 15)  (  1, 18, 15)  (  1, 18, 15)
  0  0.1151      0  0.3972E-01  0  0.1515E-01  0  0.7165E-02  0  0.3054E-02
   (  1, 18, 15)  (  1, 18, 15)  (  1, 18, 15)  (  1, 18, 15)  (  1, 18, 15)
  0  0.1249E-02  1  0.1032      0  0.6197E-01  0  0.3712E-01  0  0.1736E-01
   (  1, 18, 15)  (  1, 18, 15)  (  1, 18, 15)  (  1, 18, 15)  (  1, 18, 15)
  0  0.5461E-02  0  0.2222E-02  1  0.4866E-01  0  0.1982E-01  0  0.8382E-02
   (  1, 18, 15)  (  1, 18, 15)  (  1, 18, 15)  (  1, 18, 15)  (  1, 18, 15)
  0  0.2296E-02  0  0.1410E-02  1  0.4927E-01  0  0.2358E-01  0  0.1115E-01
   (  1, 18, 15)  (  1, 18, 15)  (  1, 18, 15)  (  1, 18, 15)  (  1, 18, 15)
  0  0.5689E-03  1  0.1518E-01
   (  1, 18, 15)  (  1, 18, 15)



 OUTPUT CONTROL FOR STRESS PERIOD    1   TIME STEP    1
    SAVE HEAD FOR ALL LAYERS
    SAVE BUDGET
 UBDSV2 SAVING "   CONSTANT HEAD" ON UNIT  53 AT TIME STEP  1, STRESS PERIOD   1
 UBDSV1 SAVING "FLOW RIGHT FACE " ON UNIT  53 AT TIME STEP  1, STRESS PERIOD   1
 UBDSV1 SAVING "FLOW FRONT FACE " ON UNIT  53 AT TIME STEP  1, STRESS PERIOD   1

 HEAD WILL BE SAVED ON UNIT   51 AT END OF TIME STEP    1, STRESS PERIOD    1
1
  VOLUMETRIC BUDGET FOR ENTIRE MODEL AT END OF TIME STEP    1, STRESS PERIOD   1
  ------------------------------------------------------------------------------

     CUMULATIVE VOLUMES      L**3       RATES FOR THIS TIME STEP      L**3/T
     ------------------                 ------------------------

           IN:                                      IN:
           ---                                      ---
             STORAGE =           0.0000               STORAGE =           0.0000
       CONSTANT HEAD =           0.0000         CONSTANT HEAD =           0.0000
               WELLS =         597.3618                 WELLS =         597.3618
       RIVER LEAKAGE =           0.0000         RIVER LEAKAGE =           0.0000
            RECHARGE =        5800.4810              RECHARGE =        5800.4810

            TOTAL IN =        6397.8428              TOTAL IN =        6397.8428

          OUT:                                     OUT:
          ----                                     ----
             STORAGE =           0.0000               STORAGE =           0.0000
       CONSTANT HEAD =         603.6063         CONSTANT HEAD =         603.6063
               WELLS =           0.0000                 WELLS =           0.0000
       RIVER LEAKAGE =        5794.3564         RIVER LEAKAGE =        5794.3564
            RECHARGE =           0.0000              RECHARGE =           0.0000

           TOTAL OUT =        6397.9629             TOTAL OUT =        6397.9629

            IN - OUT =          -0.1201              IN - OUT =          -0.1201

 PERCENT DISCREPANCY =          -0.00     PERCENT DISCREPANCY =          -0.00






         TIME SUMMARY AT END OF TIME STEP    1 IN STRESS PERIOD    1
                    SECONDS     MINUTES      HOURS       DAYS        YEARS
                    -----------------------------------------------------------
   TIME STEP LENGTH  86400.      1440.0      24.000      1.0000     2.73785E-03
 STRESS PERIOD TIME  86400.      1440.0      24.000      1.0000     2.73785E-03
         TOTAL TIME  86400.      1440.0      24.000      1.0000     2.73785E-03
1
1
                            STRESS PERIOD NO.    2, LENGTH =   1825.000    
                            -----------------------------------------------

                              NUMBER OF TIME STEPS =     1

                               MULTIPLIER FOR DELT =     1.000

                            INITIAL TIME STEP SIZE =   1825.000    

 WELL NO.  LAYER   ROW   COL   STRESS RATE         
 --------------------------------------------------
      1      1      9     16       88.39    
      2      1     11     13       67.77    
      3      1     20     14       110.7    
      4      1     26     10       101.6    
      5      1     29      6       117.5    
      6      1     34     12       63.81    

      6 WELLS

 REUSING NON-PARAMETER RIVER REACHES FROM LAST STRESS PERIOD

     40 RIVER REACHES

 OPENING FILE ON UNIT   99:
 rech_1.ref                                                                                                                                                                                              



                           RECHARGE
 READING ON UNIT   99 WITH FORMAT: (20G15.6)           

 SOLVING FOR HEAD 


    10 CALLS TO PCG ROUTINE FOR TIME STEP   1 IN STRESS PERIOD    2
    71 TOTAL ITERATIONS

 MAXIMUM HEAD CHANGE FOR EACH ITERATION (1 INDICATES THE FIRST INNER ITERATION):

    HEAD CHANGE    HEAD CHANGE    HEAD CHANGE    HEAD CHANGE    HEAD CHANGE 
   LAYER,ROW,COL  LAYER,ROW,COL  LAYER,ROW,COL  LAYER,ROW,COL  LAYER,ROW,COL
 ---------------------------------------------------------------------------
  1 -0.9935      0  0.1847      0 -0.7048E-01  0 -0.3843E-01  0  0.1137E-01
   (  1, 14,  4)  (  1, 14,  4)  (  1, 13,  3)  (  1,  6,  2)  (  1, 17,  9)
  0 -0.8938E-02  0 -0.2426E-02  0  0.6273E-03  0  0.2384E-03  0  0.1264E-03
   (  1,  8,  5)  (  1,  9,  4)  (  1, 32, 12)  (  1, 39, 14)  (  1, 30, 12)
  0 -0.4200E-04  0 -0.1669E-04  0 -0.7978E-05  1 -0.1721      0 -0.7192E-01
   (  1, 32, 12)  (  1,  9,  4)  (  1, 30, 12)  (  1, 34, 12)  (  1,  8,  1)
  0 -0.2757E-01  0 -0.7675E-02  0 -0.3946E-02  0  0.2098E-02  0 -0.4894E-03
   (  1,  6,  2)  (  1,  5,  5)  (  1,  8,  5)  (  1,  8,  5)  (  1,  8,  5)
  0 -0.2578E-03  0 -0.6955E-04  0  0.2928E-04  0  0.1033E-04  0 -0.6077E-05
   (  1,  8,  1)  (  1,  7,  2)  (  1, 30, 12)  (  1,  3, 11)  (  1,  8,  1)
  1 -0.4340E-01  0 -0.1788E-01  0 -0.7565E-02  0 -0.2059E-02  0 -0.1165E-02
   (  1, 34, 12)  (  1,  8,  1)  (  1,  6,  2)  (  1,  5,  5)  (  1,  8,  5)
  0  0.6335E-03  0 -0.1424E-03  0 -0.6433E-04  0  0.1694E-04  0  0.8438E-05
   (  1,  8,  5)  (  1,  8,  5)  (  1,  8,  1)  (  1, 39, 14)  (  1, 30, 12)
  1  0.1101E-01  0 -0.4235E-02  0 -0.2057E-02  0 -0.5444E-03  0 -0.3456E-03
   (  1, 14,  4)  (  1,  8,  1)  (  1,  6,  2)  (  1,  5,  5)  (  1,  8,  5)
  0  0.1911E-03  0 -0.4189E-04  0 -0.1540E-04  0 -0.4731E-05  1  0.3174E-02
   (  1,  8,  5)  (  1,  8,  5)  (  1,  8,  1)  (  1, 19,  2)  (  1, 14,  4)
  0  0.1209E-02  0 -0.5551E-03  0  0.1479E-03  0 -0.1011E-03  0  0.5689E-04
   (  1, 15,  1)  (  1,  6,  2)  (  1,  6,  2)  (  1,  8,  5)  (  1,  8,  5)
  0 -0.1240E-04  0 -0.4180E-05  1  0.9008E-03  0  0.3582E-03  0 -0.1507E-03
   (  1,  8,  5)  (  1, 15, 12)  (  1, 14,  4)  (  1, 15,  1)  (  1,  6,  2)
  0  0.4779E-04  0 -0.2966E-04  0  0.1665E-04  0 -0.3623E-05  1  0.2537E-03
   (  1,  6,  2)  (  1,  8,  5)  (  1,  8,  5)  (  1,  8,  5)  (  1, 14,  4)
  0  0.1042E-03  0 -0.4040E-04  0  0.1507E-04  0 -0.8537E-05  1 -0.7581E-04
   (  1, 15,  1)  (  1,  6,  2)  (  1,  6,  2)  (  1,  8,  5)  (  1, 39, 14)
  0  0.2991E-04  0  0.1250E-04  0 -0.4257E-05  1 -0.2441E-04  0  0.8585E-05
   (  1, 15,  1)  (  1, 39, 14)  (  1, 30, 14)  (  1, 39, 14)  (  1, 11,  4)
  1  0.6360E-05
   (  1, 13,  3)

 MAXIMUM RESIDUAL FOR EACH ITERATION (1 INDICATES THE FIRST INNER ITERATION):

    RESIDUAL       RESIDUAL       RESIDUAL       RESIDUAL       RESIDUAL    
   LAYER,ROW,COL  LAYER,ROW,COL  LAYER,ROW,COL  LAYER,ROW,COL  LAYER,ROW,COL
 ---------------------------------------------------------------------------
  1  -20.53      0   10.95      0   4.122      0   1.825      0  0.8233    
   (  1, 14,  4)  (  1, 10, 15)  (  1,  6,  2)  (  1,  7, 15)  (  1, 24, 15)
  0  0.3881      0  0.1635      0 -0.7532E-01  0  0.2429E-01  0  0.1214E-01
   (  1, 24, 15)  (  1, 24, 15)  (  1, 33, 11)  (  1, 24, 15)  (  1, 32, 12)
  0  0.5026E-02  0  0.1727E-02  0  0.7454E-03  1   6.808      0   2.887    
   (  1, 33, 11)  (  1, 18, 15)  (  1, 18, 15)  (  1, 29, 15)  (  1, 10, 15)
  0  -1.482      0  0.5247      0  0.2551      0  0.1163      0  0.4800E-01
   (  1, 33, 11)  (  1,  7, 15)  (  1, 24, 15)  (  1, 24, 15)  (  1, 24, 15)
  0 -0.2589E-01  0  0.8717E-02  0  0.3349E-02  0  0.1310E-02  0  0.5483E-03
   (  1, 33, 11)  (  1, 24, 15)  (  1, 24, 15)  (  1, 11, 15)  (  1, 11, 15)
  1   2.398      0  0.8935      0 -0.3998      0  0.1617      0  0.7952E-01
   (  1, 29, 15)  (  1, 10, 15)  (  1, 33, 11)  (  1,  7, 15)  (  1, 24, 15)
  0  0.3529E-01  0  0.1475E-01  0 -0.6309E-02  0  0.2615E-02  0  0.1058E-02
   (  1, 24, 15)  (  1, 24, 15)  (  1, 33, 11)  (  1, 24, 15)  (  1, 24, 15)
  1  0.8163      0  0.2785      0  0.1102      0  0.5018E-01  0  0.2512E-01
   (  1, 29, 15)  (  1, 10, 15)  (  1, 13, 15)  (  1, 24, 15)  (  1, 24, 15)
  0  0.1082E-01  0  0.4575E-02  0  0.1862E-02  0  0.7732E-03  1  0.2713    
   (  1, 24, 15)  (  1, 24, 15)  (  1, 24, 15)  (  1, 24, 15)  (  1, 29, 15)
  0  0.8684E-01  0  0.3498E-01  0  0.1587E-01  0  0.7926E-02  0  0.3311E-02
   (  1, 10, 15)  (  1, 13, 15)  (  1, 24, 15)  (  1, 24, 15)  (  1, 24, 15)
  0  0.1404E-02  0  0.5569E-03  1  0.8860E-01  0  0.2739E-01  0  0.1106E-01
   (  1, 24, 15)  (  1, 24, 15)  (  1, 29, 15)  (  1, 13, 15)  (  1, 13, 15)
  0  0.4987E-02  0  0.2480E-02  0  0.1005E-02  0  0.4225E-03  1  0.2859E-01
   (  1, 24, 15)  (  1, 24, 15)  (  1, 24, 15)  (  1, 24, 15)  (  1, 29, 15)
  0  0.8702E-02  0  0.3467E-02  0  0.1539E-02  0  0.7608E-03  1  0.9009E-02
   (  1, 13, 15)  (  1, 13, 15)  (  1, 24, 15)  (  1, 24, 15)  (  1, 29, 15)
  0  0.2789E-02  0  0.1012E-02  0  0.4327E-03  1  0.2911E-02  0  0.9380E-03
   (  1, 13, 15)  (  1, 13, 15)  (  1, 24, 15)  (  1, 29, 15)  (  1, 13, 15)
  1  0.1161E-02
   (  1, 29, 15)



 OUTPUT CONTROL FOR STRESS PERIOD    2   TIME STEP    1
    SAVE HEAD FOR ALL LAYERS
    SAVE BUDGET
 UBDSV1 SAVING "         STORAGE" ON UNIT  53 AT TIME STEP  1, STRESS PERIOD   2
 UBDSV2 SAVING "   CONSTANT HEAD" ON UNIT  53 AT TIME STEP  1, STRESS PERIOD   2
 UBDSV1 SAVING "FLOW RIGHT FACE " ON UNIT  53 AT TIME STEP  1, STRESS PERIOD   2
 UBDSV1 SAVING "FLOW FRONT FACE " ON UNIT  53 AT TIME STEP  1, STRESS PERIOD   2

 HEAD WILL BE SAVED ON UNIT   51 AT END OF TIME STEP    1, STRESS PERIOD    2
1
  VOLUMETRIC BUDGET FOR ENTIRE MODEL AT END OF TIME STEP    1, STRESS PERIOD   2
  ------------------------------------------------------------------------------

     CUMULATIVE VOLUMES      L**3       RATES FOR THIS TIME STEP      L**3/T
     ------------------                 ------------------------

           IN:                                      IN:
           ---                                      ---
             STORAGE =     2349657.0000               STORAGE =        1287.4833
       CONSTANT HEAD =           0.0000         CONSTANT HEAD =           0.0000
               WELLS =     1004008.5000                 WELLS =         549.8143
       RIVER LEAKAGE =       13014.4834         RIVER LEAKAGE =           7.1312
            RECHARGE =     6190259.0000              RECHARGE =        3388.7444

            TOTAL IN =     9556939.0000              TOTAL IN =        5233.1733

          OUT:                                     OUT:
          ----                                     ----
             STORAGE =           0.0000               STORAGE =           0.0000
       CONSTANT HEAD =      896461.8750         CONSTANT HEAD =         490.8812
               WELLS =           0.0000                 WELLS =           0.0000
       RIVER LEAKAGE =     8660554.0000         RIVER LEAKAGE =        4742.3340
            RECHARGE =           0.0000              RECHARGE =           0.0000

           TOTAL OUT =     9557016.0000             TOTAL OUT =        5233.2153

            IN - OUT =         -77.0000              IN - OUT =      -4.1992E-02

 PERCENT DISCREPANCY =          -0.00     PERCENT DISCREPANCY =          -0.00






         TIME SUMMARY AT END OF TIME STEP    1 IN STRESS PERIOD    2
                    SECONDS     MINUTES      HOURS       DAYS        YEARS
                    -----------------------------------------------------------
   TIME STEP LENGTH 1.57680E+08 2.62800E+06  43800.      1825.0      4.9966    
 STRESS PERIOD TIME 1.57680E+08 2.62800E+06  43800.      1825.0      4.9966    
         TOTAL TIME 1.57766E+08 2.62944E+06  43824.      1826.0      4.9993    
1
1
                            STRESS PERIOD NO.    3, LENGTH =   1.000000    
                            -----------------------------------------------

                              NUMBER OF TIME STEPS =     1

                               MULTIPLIER FOR DELT =     1.000

                            INITIAL TIME STEP SIZE =   1.000000    

 WELL NO.  LAYER   ROW   COL   STRESS RATE         
 --------------------------------------------------
      1      1      9     16       88.39    
      2      1     11     13       67.77    
      3      1     20     14       110.7    
      4      1     26     10       101.6    
      5      1     29      6       117.5    
      6      1     34     12       63.81    

      6 WELLS

 REUSING NON-PARAMETER RIVER REACHES FROM LAST STRESS PERIOD

     40 RIVER REACHES

 OPENING FILE ON UNIT   99:
 rech_2.ref                                                                                                                                                                                              



                           RECHARGE
 READING ON UNIT   99 WITH FORMAT: (20G15.6)           

 SOLVING FOR HEAD 


    11 CALLS TO PCG ROUTINE FOR TIME STEP   1 IN STRESS PERIOD    3
   139 TOTAL ITERATIONS

 MAXIMUM HEAD CHANGE FOR EACH ITERATION (1 INDICATES THE FIRST INNER ITERATION):

    HEAD CHANGE    HEAD CHANGE    HEAD CHANGE    HEAD CHANGE    HEAD CHANGE 
   LAYER,ROW,COL  LAYER,ROW,COL  LAYER,ROW,COL  LAYER,ROW,COL  LAYER,ROW,COL
 ---------------------------------------------------------------------------
  1  -1.712      0  -1.846      0 -0.9188      0 -0.8631      0 -0.4153    
   (  1,  9,  4)  (  1,  8,  5)  (  1, 21,  1)  (  1,  1,  5)  (  1, 18,  2)
  0 -0.2426      0 -0.1290      0 -0.8318E-01  0 -0.7128E-01  0 -0.2680E-01
   (  1, 18,  2)  (  1, 23,  1)  (  1, 15,  3)  (  1,  2,  1)  (  1,  2,  7)
  0 -0.2013E-01  0 -0.1773E-01  0 -0.6972E-02  0 -0.4236E-02  0 -0.4232E-02
   (  1,  8,  5)  (  1,  8,  1)  (  1,  4,  1)  (  1,  3,  8)  (  1,  7,  2)
  0  0.1747E-02  0 -0.1251E-02  0  0.4979E-03  0  0.2032E-03  0 -0.1353E-03
   (  1,  8,  5)  (  1, 10,  1)  (  1, 17, 12)  (  1, 23,  8)  (  1,  9,  4)
  0 -0.1079E-03  0  0.6184E-04  0  0.2754E-04  0  0.1717E-04  0  0.9526E-05
   (  1,  8,  5)  (  1, 32,  1)  (  1, 28,  3)  (  1, 25,  7)  (  1, 16, 13)
  1  0.1820      0 -0.2632      0 -0.2393      0 -0.9378E-01  0 -0.5709E-01
   (  1,  9,  4)  (  1,  9,  4)  (  1,  8,  5)  (  1, 34,  3)  (  1, 26,  6)
  0 -0.3054E-01  0 -0.1664E-01  0 -0.1112E-01  0 -0.7769E-02  0  0.4290E-02
   (  1, 32,  5)  (  1, 20,  4)  (  1,  3, 11)  (  1,  8,  1)  (  1, 19,  4)
  0 -0.2937E-02  0  0.2431E-02  0  0.9999E-03  0 -0.7056E-03  0 -0.5434E-03
   (  1,  9,  4)  (  1, 34,  3)  (  1, 29,  6)  (  1, 10,  1)  (  1,  7,  2)
  0  0.4139E-03  0 -0.2075E-03  0 -0.9050E-04  0  0.5054E-04  0  0.4320E-04
   (  1,  8,  1)  (  1,  8,  1)  (  1,  9,  4)  (  1,  9,  4)  (  1,  8,  5)
  0 -0.2895E-04  0 -0.9542E-05  1  0.8595E-01  0  0.6978E-01  0 -0.6238E-01
   (  1,  4,  6)  (  1,  8,  1)  (  1,  9,  4)  (  1,  8,  5)  (  1,  8,  5)
  0 -0.3025E-01  0  0.1082E-01  0  0.1160E-01  0  0.5476E-02  0  0.4061E-02
   (  1,  9,  8)  (  1, 39, 14)  (  1, 18,  2)  (  1, 10,  4)  (  1, 15,  3)
  0  0.2054E-02  0 -0.1437E-02  0 -0.9113E-03  0  0.1065E-02  0 -0.3193E-03
   (  1,  9,  4)  (  1,  9,  4)  (  1,  8,  5)  (  1,  2,  1)  (  1, 27, 12)
  0  0.2139E-03  0 -0.2118E-03  0  0.8702E-04  0 -0.3148E-04  0 -0.2352E-04
   (  1,  6,  1)  (  1,  8,  5)  (  1,  8,  1)  (  1, 27,  6)  (  1, 21, 11)
  0 -0.1662E-04  0  0.1501E-04  0 -0.5360E-05  1  0.2845E-01  0  0.1426E-01
   (  1,  8,  5)  (  1,  8,  5)  (  1,  6,  9)  (  1,  9,  4)  (  1,  8,  5)
  0 -0.1572E-01  0 -0.7881E-02  0  0.4154E-02  0  0.3926E-02  0  0.2008E-02
   (  1,  8,  5)  (  1, 10, 10)  (  1, 27,  1)  (  1, 19,  4)  (  1, 23,  1)
  0  0.1396E-02  0  0.6494E-03  0  0.3711E-03  0  0.2693E-03  0  0.2993E-03
   (  1, 17,  4)  (  1,  9,  4)  (  1, 20,  4)  (  1,  9,  4)  (  1,  2,  1)
  0 -0.9556E-04  0  0.4464E-04  0 -0.4185E-04  0  0.3429E-04  0  0.9449E-05
   (  1, 26, 10)  (  1,  6,  1)  (  1,  8,  5)  (  1,  6,  1)  (  1, 29,  7)
  1  0.8429E-02  0  0.3650E-02  0 -0.4352E-02  0  0.1833E-02  0  0.1172E-02
   (  1,  8,  5)  (  1,  9,  4)  (  1,  9,  4)  (  1,  8,  1)  (  1, 30,  4)
  0  0.1008E-02  0  0.4647E-03  0  0.2473E-03  0 -0.1453E-03  0  0.1459E-03
   (  1,  2,  2)  (  1, 27,  3)  (  1,  2,  1)  (  1, 19,  4)  (  1, 20,  4)
  0  0.7278E-04  0  0.5696E-04  0 -0.2407E-04  0 -0.1126E-04  0 -0.6291E-05
   (  1,  8,  5)  (  1,  3,  1)  (  1, 26, 10)  (  1, 16,  9)  (  1, 27,  6)
  1 -0.9245E-03  0  0.1347E-02  0  0.1305E-02  0 -0.7959E-03  0  0.4726E-03
   (  1, 10,  4)  (  1,  9,  4)  (  1,  8,  5)  (  1,  9,  4)  (  1,  9,  4)
  0  0.2518E-03  0  0.1224E-03  0 -0.6622E-04  0  0.5660E-04  0  0.2391E-04
   (  1, 20,  4)  (  1, 30,  5)  (  1, 15,  3)  (  1,  2,  1)  (  1, 27, 11)
  0  0.1675E-04  0  0.1206E-04  0  0.5424E-05  1 -0.3708E-03  0 -0.3849E-03
   (  1,  8,  5)  (  1, 30,  1)  (  1,  8,  1)  (  1,  9,  4)  (  1,  8,  5)
  0  0.4810E-03  0  0.1327E-03  0  0.6666E-04  0  0.6568E-04  0  0.4427E-04
   (  1,  8,  5)  (  1, 32,  1)  (  1, 34,  3)  (  1, 30,  5)  (  1, 21,  4)
  0 -0.2023E-04  0  0.1646E-04  0 -0.9496E-05  1 -0.1241E-03  0 -0.1313E-03
   (  1, 30, 14)  (  1,  3,  1)  (  1,  8,  5)  (  1,  9,  4)  (  1,  8,  5)
  0  0.1225E-03  0  0.4536E-04  0  0.1945E-04  0 -0.2244E-04  0  0.1314E-04
   (  1,  8,  5)  (  1, 30,  6)  (  1, 34,  3)  (  1, 19,  4)  (  1, 21,  4)
  0 -0.7706E-05  1 -0.4178E-04  0 -0.3677E-04  0  0.3322E-04  0  0.1505E-04
   (  1, 30, 14)  (  1,  9,  4)  (  1,  8,  5)  (  1,  8,  5)  (  1, 30,  6)
  0  0.5773E-05  1 -0.1416E-04  0  0.7911E-05  1  0.6268E-05
   (  1,  8,  8)  (  1,  9,  4)  (  1,  9,  4)  (  1,  8,  5)

 MAXIMUM RESIDUAL FOR EACH ITERATION (1 INDICATES THE FIRST INNER ITERATION):

    RESIDUAL       RESIDUAL       RESIDUAL       RESIDUAL       RESIDUAL    
   LAYER,ROW,COL  LAYER,ROW,COL  LAYER,ROW,COL  LAYER,ROW,COL  LAYER,ROW,COL
 ---------------------------------------------------------------------------
  1   45.33      0   69.64      0   40.76      0  -36.34      0  -33.20    
   (  1,  5,  3)  (  1,  5,  5)  (  1,  1,  5)  (  1, 32, 12)  (  1, 33, 11)
  0   16.29      0   12.06      0   6.171      0   2.971      0  -3.393    
   (  1,  2, 15)  (  1,  2, 15)  (  1,  3, 11)  (  1,  5, 15)  (  1, 32, 12)
  0  -1.700      0 -0.9329      0  0.4809      0  0.2794      0  0.2050    
   (  1,  8,  5)  (  1, 33, 11)  (  1,  5, 15)  (  1, 23,  9)  (  1,  5,  5)
  0  0.1303      0 -0.7810E-01  0  0.4765E-01  0  0.1906E-01  0  0.1766E-01
   (  1, 18, 15)  (  1, 36,  8)  (  1, 36, 11)  (  1,  1, 15)  (  1,  1, 15)
  0  0.1158E-01  0  0.5580E-02  0  0.3727E-02  0  0.2386E-02  0  0.1336E-02
   (  1, 36, 11)  (  1,  1, 15)  (  1,  1, 15)  (  1,  1, 15)  (  1,  1, 15)
  1   8.354      0   9.436      0   9.996      0   6.156      0   3.861    
   (  1,  9,  4)  (  1, 29, 15)  (  1, 29, 15)  (  1, 29, 15)  (  1,  2, 15)
  0  -4.061      0  -1.760      0   1.075      0  0.7567      0  0.4931    
   (  1, 33, 11)  (  1, 36, 11)  (  1,  5, 15)  (  1,  5, 15)  (  1,  5, 15)
  0  0.4350      0  0.2343      0  0.1433      0  0.7287E-01  0  0.5845E-01
   (  1,  5, 15)  (  1,  5, 15)  (  1,  5, 15)  (  1,  5, 15)  (  1,  5, 15)
  0  0.3204E-01  0  0.1339E-01  0  0.6305E-02  0  0.5404E-02  0  0.3278E-02
   (  1,  5, 15)  (  1,  5, 15)  (  1,  4, 15)  (  1,  4, 15)  (  1,  4, 15)
  0  0.1705E-02  0  0.9957E-03  1  -3.548      0  -3.421      0   2.818    
   (  1,  1, 15)  (  1,  1, 15)  (  1, 29,  6)  (  1,  5,  5)  (  1, 29, 15)
  0   2.172      0   1.507      0  0.7772      0  0.5320      0  0.3479    
   (  1, 29, 15)  (  1, 13, 15)  (  1, 10, 15)  (  1,  6, 15)  (  1,  5, 15)
  0  0.2276      0  0.1437      0  0.1265      0  0.6971E-01  0  0.4149E-01
   (  1,  5, 15)  (  1,  5, 15)  (  1,  5, 15)  (  1,  5, 15)  (  1,  5, 15)
  0  0.2612E-01  0 -0.1988E-01  0  0.1159E-01  0  0.6363E-02  0  0.3232E-02
   (  1,  5, 15)  (  1, 36, 11)  (  1,  5, 15)  (  1,  5, 15)  (  1, 29, 15)
  0  0.2657E-02  0  0.9528E-03  0  0.4608E-03  1 -0.9977      0  0.8063    
   (  1, 29, 15)  (  1,  4, 15)  (  1,  4, 15)  (  1, 29,  6)  (  1,  8,  5)
  0  0.8590      0  0.6765      0  0.4845      0  0.2346      0  0.1548    
   (  1, 29, 15)  (  1, 13, 15)  (  1, 13, 15)  (  1, 10, 15)  (  1, 32, 12)
  0  0.9793E-01  0  0.6240E-01  0  0.3691E-01  0  0.3167E-01  0  0.1863E-01
   (  1,  6, 15)  (  1,  5, 15)  (  1,  5, 15)  (  1,  5, 15)  (  1,  5, 15)
  0  0.1109E-01  0  0.5772E-02  0  0.4679E-02  0  0.2813E-02  0  0.1545E-02
   (  1,  5, 15)  (  1,  5, 15)  (  1,  5, 15)  (  1,  5, 15)  (  1, 29, 15)
  1  0.2726      0  0.2635      0  0.2635      0  0.2033      0  0.1333    
   (  1,  8,  5)  (  1, 29, 15)  (  1, 29, 15)  (  1, 13, 15)  (  1, 13, 15)
  0  0.6542E-01  0  0.4003E-01  0  0.2389E-01  0  0.1631E-01  0  0.1002E-01
   (  1, 10, 15)  (  1,  6, 15)  (  1,  5, 15)  (  1,  5, 15)  (  1,  5, 15)
  0  0.8968E-02  0  0.4970E-02  0  0.3036E-02  0  0.1565E-02  0  0.9449E-03
   (  1,  5, 15)  (  1,  5, 15)  (  1,  5, 15)  (  1,  5, 15)  (  1,  5, 15)
  1  0.6495E-01  0  0.8399E-01  0  0.8265E-01  0  0.6367E-01  0  0.3153E-01
   (  1,  8,  5)  (  1, 29, 15)  (  1, 29, 15)  (  1, 29, 15)  (  1, 13, 15)
  0  0.1689E-01  0  0.1175E-01  0  0.7154E-02  0  0.5076E-02  0  0.2655E-02
   (  1,  6, 15)  (  1,  6, 15)  (  1,  6, 15)  (  1, 29, 15)  (  1,  5, 15)
  0  0.2400E-02  0  0.1232E-02  0  0.7179E-03  1  0.2022E-01  0  0.2382E-01
   (  1,  5, 15)  (  1,  5, 15)  (  1,  5, 15)  (  1, 29, 15)  (  1, 29, 15)
  0  0.2600E-01  0  0.2094E-01  0  0.1095E-01  0  0.5547E-02  0  0.3718E-02
   (  1, 29, 15)  (  1, 29, 15)  (  1, 13, 15)  (  1, 13, 15)  (  1,  6, 15)
  0  0.1994E-02  0  0.1398E-02  0  0.1006E-02  1  0.7189E-02  0  0.7566E-02
   (  1,  5, 15)  (  1, 29, 15)  (  1, 29, 15)  (  1, 29, 15)  (  1, 29, 15)
  0  0.7921E-02  0  0.6895E-02  0  0.3945E-02  0  0.1905E-02  0  0.1155E-02
   (  1, 29, 15)  (  1, 29, 15)  (  1, 29, 15)  (  1, 13, 15)  (  1, 30, 14)
  0  0.5524E-03  1  0.2575E-02  0  0.2483E-02  0  0.2401E-02  0  0.2290E-02
   (  1,  5, 15)  (  1, 29, 15)  (  1, 29, 15)  (  1, 29, 15)  (  1, 29, 15)
  0  0.1475E-02  1  0.1592E-02  0  0.1270E-02  1  0.1405E-02
   (  1, 29, 15)  (  1, 29, 15)  (  1, 29, 15)  (  1, 29, 15)



 OUTPUT CONTROL FOR STRESS PERIOD    3   TIME STEP    1
    SAVE HEAD FOR ALL LAYERS
    SAVE BUDGET
 UBDSV2 SAVING "   CONSTANT HEAD" ON UNIT  53 AT TIME STEP  1, STRESS PERIOD   3
 UBDSV1 SAVING "FLOW RIGHT FACE " ON UNIT  53 AT TIME STEP  1, STRESS PERIOD   3
 UBDSV1 SAVING "FLOW FRONT FACE " ON UNIT  53 AT TIME STEP  1, STRESS PERIOD   3

 HEAD WILL BE SAVED ON UNIT   51 AT END OF TIME STEP    1, STRESS PERIOD    3
1
  VOLUMETRIC BUDGET FOR ENTIRE MODEL AT END OF TIME STEP    1, STRESS PERIOD   3
  ------------------------------------------------------------------------------

     CUMULATIVE VOLUMES      L**3       RATES FOR THIS TIME STEP      L**3/T
     ------------------                 ------------------------

           IN:                                      IN:
           ---                                      ---
             STORAGE =     2349657.0000               STORAGE =           0.0000
       CONSTANT HEAD =           0.0000         CONSTANT HEAD =           0.0000
               WELLS =     1004558.3125                 WELLS =         549.8143
       RIVER LEAKAGE =       13072.7461         RIVER LEAKAGE =          58.2626
            RECHARGE =     6193647.5000              RECHARGE =        3388.7444

            TOTAL IN =     9560936.0000              TOTAL IN =        3996.8213

          OUT:                                     OUT:
          ----                                     ----
             STORAGE =           0.0000               STORAGE =           0.0000
       CONSTANT HEAD =      896769.6875         CONSTANT HEAD =         307.7914
               WELLS =           0.0000                 WELLS =           0.0000
       RIVER LEAKAGE =     8664243.0000         RIVER LEAKAGE =        3689.0681
            RECHARGE =           0.0000              RECHARGE =           0.0000

           TOTAL OUT =     9561013.0000             TOTAL OUT =        3996.8596

            IN - OUT =         -77.0000              IN - OUT =      -3.8330E-02

 PERCENT DISCREPANCY =          -0.00     PERCENT DISCREPANCY =          -0.00






         TIME SUMMARY AT END OF TIME STEP    1 IN STRESS PERIOD    3
                    SECONDS     MINUTES      HOURS       DAYS        YEARS
                    -----------------------------------------------------------
   TIME STEP LENGTH  86400.      1440.0      24.000      1.0000     2.73785E-03
 STRESS PERIOD TIME  86400.      1440.0      24.000      1.0000     2.73785E-03
         TOTAL TIME 1.57853E+08 2.63088E+06  43848.      1827.0      5.0021    
1

 Run end date and time (yyyy/mm/dd hh:mm:ss): 2016/06/15 20:10:19
 Elapsed run time:  0.023 Seconds

