                                  MODFLOW-NWT-SWR1 
      U.S. GEOLOGICAL SURVEY MODULAR FINITE-DIFFERENCE GROUNDWATER-FLOW MODEL
                            VERSION 1.0.9 07/01/2014
                    BASED ON MODFLOW-2005 VERSION 1.11.00 08/30/2013

 LIST FILE: freyberg.list
                         UNIT    2

 OPENING freyberg.dis
 FILE TYPE:DIS   UNIT   11   STATUS:OLD    
 FORMAT:FORMATTED              ACCESS:SEQUENTIAL          

 OPENING freyberg.upw
 FILE TYPE:LPF   UNIT   31   STATUS:OLD    
 FORMAT:FORMATTED              ACCESS:SEQUENTIAL          

 OPENING freyberg.bas
 FILE TYPE:BAS6   UNIT   13   STATUS:OLD    
 FORMAT:FORMATTED              ACCESS:SEQUENTIAL          

 OPENING freyberg.rch
 FILE TYPE:RCH   UNIT   19   STATUS:OLD    
 FORMAT:FORMATTED              ACCESS:SEQUENTIAL          

 OPENING freyberg.wel
 FILE TYPE:WEL   UNIT   20   STATUS:OLD    
 FORMAT:FORMATTED              ACCESS:SEQUENTIAL          

 OPENING freyberg.riv
 FILE TYPE:RIV   UNIT   18   STATUS:OLD    
 FORMAT:FORMATTED              ACCESS:SEQUENTIAL          

 OPENING freyberg.oc
 FILE TYPE:OC   UNIT   14   STATUS:OLD    
 FORMAT:FORMATTED              ACCESS:SEQUENTIAL          

 OPENING freyberg.hds
 FILE TYPE:DATA   UNIT   51   STATUS:REPLACE
 FORMAT:FORMATTED              ACCESS:SEQUENTIAL          

 OPENING freyberg.ddn
 FILE TYPE:DATA(BINARY)   UNIT   52   STATUS:REPLACE
 FORMAT:UNFORMATTED            ACCESS:STREAM              

 OPENING freyberg.cbc
 FILE TYPE:DATA(BINARY)   UNIT   53   STATUS:REPLACE
 FORMAT:UNFORMATTED            ACCESS:STREAM              

 OPENING freyberg.pcg
 FILE TYPE:PCG   UNIT   32   STATUS:OLD    
 FORMAT:FORMATTED              ACCESS:SEQUENTIAL          

 BAS -- BASIC PACKAGE, VERSION 7, 5/2/2005 INPUT READ FROM UNIT   13

 MODFLOW was compiled using mixed precision
 Precision of REAL variables:           6
 Precision of DOUBLE PRECISION variables:          15

 DISCRETIZATION INPUT DATA READ FROM UNIT   11
 # Discretization file for MODFLOW, generated by Flopy.
    1 LAYERS        40 ROWS        20 COLUMNS
    3 STRESS PERIOD(S) IN SIMULATION
 MODEL TIME UNIT IS DAYS
 MODEL LENGTH UNIT IS METERS
  Confining bed flag for each layer:
   0



                               DELR
 READING ON UNIT   11 WITH FORMAT: (20G15.6)           



                               DELC
 READING ON UNIT   11 WITH FORMAT: (40G15.6)           

 TOP ELEVATION OF LAYER 1 =   35.0000    

 OPENING FILE ON UNIT   99:
 botm.ref                                                                                                                                                                                                



             MODEL LAYER BOTTOM EL. FOR LAYER   1
 READING ON UNIT   99 WITH FORMAT: (10E12.4)           


 STRESS PERIOD     LENGTH       TIME STEPS     MULTIPLIER FOR DELT    SS FLAG
 ----------------------------------------------------------------------------
        1         1.000000          1                    1.000         SS
        2         1825.000          1                    1.000         TR
        3         1.000000          1                    1.000         SS

 COMBINED STEADY-STATE AND TRANSIENT SIMULATION




 # Basic package file for MODFLOW, generated by Flopy.                           
 THE FREE FORMAT OPTION HAS BEEN SELECTED

 OPENING FILE ON UNIT   99:
 ibound.ref                                                                                                                                                                                              



                     BOUNDARY ARRAY FOR LAYER   1
 READING ON UNIT   99 WITH FORMAT: (25I3)              

 AQUIFER HEAD WILL BE SET TO  -999.99     AT ALL NO-FLOW NODES (IBOUND=0).

 OPENING FILE ON UNIT   99:
 strt.ref                                                                                                                                                                                                



                       INITIAL HEAD FOR LAYER   1
 READING ON UNIT   99 WITH FORMAT: (10E12.4)           
 # Output control package file for MODFLOW, generated by Flopy.

 OUTPUT CONTROL IS SPECIFIED ONLY AT TIME STEPS FOR WHICH OUTPUT IS DESIRED
 HEADS WILL BE SAVED WITH FORMAT: (20E15.6)           
 COMPACT CELL-BY-CELL BUDGET FILES WILL BE WRITTEN
 AUXILIARY DATA WILL BE SAVED IN CELL-BY-CELL BUDGET FILES
 HEAD PRINT FORMAT CODE IS   0    DRAWDOWN PRINT FORMAT CODE IS   0
 HEADS WILL BE SAVED ON UNIT   51    DRAWDOWNS WILL BE SAVED ON UNIT   52

 LPF -- LAYER-PROPERTY FLOW PACKAGE, VERSION 7, 5/2/2005
         INPUT READ FROM UNIT   31
 # UPW for MODFLOW-NWT, generated by Flopy.
 CELL-BY-CELL FLOWS WILL BE SAVED ON UNIT   53
 HEAD AT CELLS THAT CONVERT TO DRY= -1.00000E+30
 No named parameters

   LAYER FLAGS:
 LAYER       LAYTYP        LAYAVG         CHANI        LAYVKA        LAYWET
 ---------------------------------------------------------------------------
    1             1             0     1.000E+00             0             0

   INTERPRETATION OF LAYER FLAGS:
                        INTERBLOCK     HORIZONTAL    DATA IN
         LAYER TYPE   TRANSMISSIVITY   ANISOTROPY   ARRAY VKA   WETTABILITY
 LAYER      (LAYTYP)      (LAYAVG)       (CHANI)      (LAYVKA)      (LAYWET)
 ---------------------------------------------------------------------------
    1   CONVERTIBLE      HARMONIC     1.000E+00    VERTICAL K  NON-WETTABLE

 WETTING CAPABILITY IS NOT ACTIVE IN ANY LAYER

 OPENING FILE ON UNIT   99:
 hk_Layer_1.ref                                                                                                                                                                                          



              HYD. COND. ALONG ROWS FOR LAYER   1
 READING ON UNIT   99 WITH FORMAT: (20G15.6)           

      VERTICAL HYD. COND. =   1.00000     FOR LAYER   1

 OPENING FILE ON UNIT   99:
 ss_Layer_1.ref                                                                                                                                                                                          



                   SPECIFIC STORAGE FOR LAYER   1
 READING ON UNIT   99 WITH FORMAT: (20G15.6)           

           SPECIFIC YIELD =  5.420994E-02 FOR LAYER   1

 WEL -- WELL PACKAGE, VERSION 1.0.6, 12/05/2012 INPUT READ FROM UNIT   20
 # Well file for MODFLOW, generated by Flopy.
 No named parameters
 MAXIMUM OF      6 ACTIVE WELLS AT ONE TIME
 No named parameters


     0 Well parameters

 RIV -- RIVER PACKAGE, VERSION 7, 5/2/2005 INPUT READ FROM UNIT   18
 # RIV for MODFLOW, generated by Flopy.
 No named parameters
 MAXIMUM OF     40 ACTIVE RIVER REACHES AT ONE TIME


     0 River parameters

 RCH -- RECHARGE PACKAGE, VERSION 7, 5/2/2005 INPUT READ FROM UNIT   19
 # RCH for MODFLOW, generated by Flopy.
 No named parameters
 OPTION 3 -- RECHARGE TO HIGHEST ACTIVE NODE IN EACH VERTICAL COLUMN


     0 Recharge parameters

 PCG -- CONJUGATE-GRADIENT SOLUTION PACKAGE, VERSION 7, 5/2/2005
 MAXIMUM OF    100 CALLS OF SOLUTION ROUTINE
 MAXIMUM OF     25 INTERNAL ITERATIONS PER CALL TO SOLUTION ROUTINE
 MATRIX PRECONDITIONING TYPE :    1
 IHCOFADD option -- When an active cell is surrounded by dry cells, convert
 the cell to dry only if storage and head-dependent boundary flow are 0.



                                    SOLUTION BY THE CONJUGATE-GRADIENT METHOD
                                   -------------------------------------------
                    MAXIMUM NUMBER OF CALLS TO PCG ROUTINE =      100
                        MAXIMUM ITERATIONS PER CALL TO PCG =       25
                               MATRIX PRECONDITIONING TYPE =        1
        RELAXATION FACTOR (ONLY USED WITH PRECOND. TYPE 1) =    0.10000E+01
 PARAMETER OF POLYNOMIAL PRECOND. = 2 (2) OR IS CALCULATED :        2
                         HEAD CHANGE CRITERION FOR CLOSURE =    0.10000E-04
                     RESIDUAL CHANGE CRITERION FOR CLOSURE =    0.10000E+00
            PCG HEAD AND RESIDUAL CHANGE PRINTOUT INTERVAL =        5
     PRINTING FROM SOLVER IS LIMITED(1) OR SUPPRESSED (>1) =        0
                            STEADY-STATE DAMPING PARAMETER =    0.70000E+00
                               TRANSIENT DAMPING PARAMETER =    0.70000E+00
1
                            STRESS PERIOD NO.    1, LENGTH =   1.000000    
                            -----------------------------------------------

                              NUMBER OF TIME STEPS =     1

                               MULTIPLIER FOR DELT =     1.000

                            INITIAL TIME STEP SIZE =   1.000000    

 WELL NO.  LAYER   ROW   COL   STRESS RATE         
 --------------------------------------------------
      1      1      9     16       98.07    
      2      1     11     13       100.4    
      3      1     20     14       97.64    
      4      1     26     10       95.41    
      5      1     29      6       89.41    
      6      1     34     12       103.3    

      6 WELLS

 REACH NO.  LAYER   ROW   COL     STAGE      CONDUCTANCE     BOTTOM EL.         
 -------------------------------------------------------------------------------
      1      1      1     15       20.10           3729.           20.00    
      2      1      2     15       19.87           1861.           19.75    
      3      1      3     15       19.65           4135.           19.50    
      4      1      4     15       19.42          0.2333E+05       19.25    
      5      1      5     15       19.19          0.2175E+05       19.00    
      6      1      6     15       18.97           6079.           18.75    
      7      1      7     15       18.74           2552.           18.50    
      8      1      8     15       18.51          0.4368E+05       18.25    
      9      1      9     15       18.28           8772.           18.00    
     10      1     10     15       19.06           6825.           17.75    
     11      1     11     15       17.83           7982.           17.50    
     12      1     12     15       17.60           1263.           17.25    
     13      1     13     15       17.38           9331.           17.00    
     14      1     14     15       17.15          0.7231E+05       16.75    
     15      1     15     15       16.92           9027.           16.50    
     16      1     16     15       16.70           5354.           16.25    
     17      1     17     15       16.47           5293.           16.00    
     18      1     18     15       16.24           4766.           15.75    
     19      1     19     15       16.02           544.4           15.50    
     20      1     20     15       15.79           5689.           15.25    
     21      1     21     15       15.56          0.1588E+05       15.00    
     22      1     22     15       15.33           7595.           14.75    
     23      1     23     15       15.11           1441.           14.50    
     24      1     24     15       14.88           8980.           14.25    
     25      1     25     15       14.65           2578.           14.00    
     26      1     26     15       14.43           1620.           13.75    
     27      1     27     15       14.20           6889.           13.50    
     28      1     28     15       13.97           4460.           13.25    
     29      1     29     15       13.75           1391.           13.00    
     30      1     30     15       13.52           5548.           12.75    
     31      1     31     15       13.29           5459.           12.50    
     32      1     32     15       13.07          0.1432E+05       12.25    
     33      1     33     15       12.84           1277.           12.00    
     34      1     34     15       12.61           7574.           11.75    
     35      1     35     15       12.38           8917.           11.50    
     36      1     36     15       12.16          0.3626E+05       11.25    
     37      1     37     15       11.93           5569.           11.00    
     38      1     38     15       11.70           5493.           10.75    
     39      1     39     15       11.48           1657.           10.50    
     40      1     40     15       11.25           3356.           10.25    

     40 RIVER REACHES

 OPENING FILE ON UNIT   99:
 rech_0.ref                                                                                                                                                                                              



                           RECHARGE
 READING ON UNIT   99 WITH FORMAT: (20G15.6)           

 SOLVING FOR HEAD 


    15 CALLS TO PCG ROUTINE FOR TIME STEP   1 IN STRESS PERIOD    1
   214 TOTAL ITERATIONS

 MAXIMUM HEAD CHANGE FOR EACH ITERATION (1 INDICATES THE FIRST INNER ITERATION):

    HEAD CHANGE    HEAD CHANGE    HEAD CHANGE    HEAD CHANGE    HEAD CHANGE 
   LAYER,ROW,COL  LAYER,ROW,COL  LAYER,ROW,COL  LAYER,ROW,COL  LAYER,ROW,COL
 ---------------------------------------------------------------------------
  1  -70.95      0  -39.76      0   23.81      0   10.96      0  -5.179    
   (  1, 39,  9)  (  1,  9,  4)  (  1,  9,  4)  (  1,  8,  5)  (  1, 28,  4)
  0   2.650      0   1.072      0 -0.8173      0  0.4283      0 -0.2273    
   (  1, 38, 10)  (  1, 39, 13)  (  1, 38, 10)  (  1,  7,  4)  (  1,  8,  4)
  0  0.1012      0  0.5447E-01  0 -0.2433E-01  0 -0.1831E-01  0 -0.1276E-01
   (  1, 38, 10)  (  1, 37,  5)  (  1, 36,  8)  (  1, 37,  5)  (  1, 37,  5)
  0 -0.9479E-02  0  0.2937E-02  0  0.2925E-02  0  0.1245E-02  0 -0.3501E-03
   (  1,  9,  4)  (  1,  9,  4)  (  1, 37,  5)  (  1, 37,  5)  (  1, 35,  9)
  0 -0.2115E-03  0  0.1172E-03  0 -0.4664E-04  0 -0.3331E-04  0 -0.1205E-04
   (  1, 34,  3)  (  1, 35,  9)  (  1, 34,  7)  (  1, 35, 10)  (  1, 35, 10)
  1  -17.86      0  -14.63      0  -8.343      0   3.869      0  -1.254    
   (  1, 39,  9)  (  1,  9,  4)  (  1,  8,  5)  (  1, 39,  9)  (  1, 28,  4)
  0  0.8677      0  0.3157      0 -0.2294      0 -0.1158      0 -0.6902E-01
   (  1, 38, 10)  (  1, 39, 13)  (  1, 38, 10)  (  1, 38, 10)  (  1,  8,  4)
  0  0.3843E-01  0 -0.1621E-01  0 -0.8012E-02  0  0.5787E-02  0  0.4356E-02
   (  1, 37,  8)  (  1, 34,  6)  (  1, 34,  3)  (  1,  8,  5)  (  1,  9,  4)
  0 -0.4071E-02  0  0.9621E-03  0  0.6232E-03  0  0.5137E-03  0  0.1234E-03
   (  1, 37,  5)  (  1, 27,  5)  (  1, 37,  5)  (  1, 37,  5)  (  1, 37,  5)
  0 -0.6020E-04  0 -0.5048E-04  0 -0.2606E-04  0 -0.1112E-04  0  0.6418E-05
   (  1, 35,  9)  (  1, 34,  3)  (  1, 37,  5)  (  1, 35, 10)  (  1, 10,  2)
  1   11.26      0  -8.170      0  -4.021      0  -1.703      0 -0.4961    
   (  1,  9,  4)  (  1,  9,  4)  (  1,  8,  5)  (  1, 34,  3)  (  1, 28,  4)
  0  0.2985      0 -0.1766      0 -0.1217      0 -0.4742E-01  0  0.1878E-01
   (  1, 35,  9)  (  1, 30,  4)  (  1, 27,  5)  (  1, 38, 10)  (  1, 35,  9)
  0 -0.1228E-01  0  0.6701E-02  0 -0.3841E-02  0 -0.1833E-02  0 -0.1181E-02
   (  1,  9,  4)  (  1, 37,  8)  (  1,  8,  5)  (  1, 38, 14)  (  1, 37,  5)
  0  0.8296E-03  0 -0.6016E-03  0  0.1814E-03  0  0.1278E-03  0  0.8221E-04
   (  1,  9,  4)  (  1, 37,  5)  (  1, 34,  3)  (  1, 37,  5)  (  1, 37,  5)
  0  0.2772E-04  0  0.2248E-04  0 -0.7745E-05  1   1.999      0 -0.9914    
   (  1, 28,  4)  (  1, 32,  1)  (  1, 36, 14)  (  1, 26,  7)  (  1, 29,  9)
  0 -0.6344      0 -0.5217      0 -0.2056      0  0.1021      0 -0.6669E-01
   (  1, 34,  3)  (  1,  9,  4)  (  1,  8,  5)  (  1, 38, 10)  (  1, 34,  7)
  0 -0.5475E-01  0 -0.2540E-01  0 -0.1043E-01  0 -0.4225E-02  0  0.2541E-02
   (  1,  8,  4)  (  1, 37,  5)  (  1, 38, 10)  (  1, 23, 10)  (  1, 37,  5)
  0 -0.1099E-02  0  0.5383E-03  0 -0.4857E-03  0  0.2318E-03  0 -0.1893E-03
   (  1,  2,  1)  (  1,  8,  5)  (  1, 37,  5)  (  1,  9,  4)  (  1, 10,  2)
  0 -0.6328E-04  0  0.3808E-04  0  0.2308E-04  0  0.1205E-04  0  0.8045E-05
   (  1, 34,  7)  (  1, 35, 10)  (  1, 37,  5)  (  1, 28,  4)  (  1, 34,  3)
  1  0.5090      0  0.6599      0 -0.2281      0 -0.1759      0 -0.7415E-01
   (  1, 30, 10)  (  1,  9,  4)  (  1, 29, 10)  (  1, 34,  3)  (  1, 28,  4)
  0 -0.4686E-01  0 -0.2719E-01  0 -0.1613E-01  0 -0.7133E-02  0 -0.4519E-02
   (  1, 34,  3)  (  1, 34,  7)  (  1,  8,  5)  (  1, 37,  5)  (  1, 38, 10)
  0  0.1268E-02  0 -0.9569E-03  0  0.3757E-03  0 -0.2339E-03  0  0.1691E-03
   (  1, 38, 14)  (  1,  8,  5)  (  1,  8,  4)  (  1,  9,  4)  (  1,  9,  4)
  0 -0.1419E-03  0 -0.6636E-04  0 -0.2248E-04  0 -0.1479E-04  0  0.1121E-04
   (  1, 37,  5)  (  1, 22, 13)  (  1, 30, 13)  (  1, 34,  3)  (  1, 34,  3)
  0  0.3553E-05  1 -0.2385      0  0.2713      0  0.9986E-01  0 -0.6106E-01
   (  1, 28,  4)  (  1,  9,  4)  (  1,  9,  4)  (  1,  8,  5)  (  1,  8,  5)
  0 -0.2511E-01  0 -0.1994E-01  0 -0.6281E-02  0 -0.4655E-02  0 -0.2946E-02
   (  1, 28,  4)  (  1, 34,  3)  (  1, 37,  5)  (  1, 37,  5)  (  1,  8,  5)
  0 -0.1873E-02  0 -0.4914E-03  0  0.3297E-03  0  0.1594E-03  0 -0.5979E-04
   (  1, 38, 10)  (  1, 27, 11)  (  1, 37,  5)  (  1, 38, 10)  (  1,  8,  5)
  0 -0.6870E-04  0 -0.5038E-04  0 -0.2431E-04  0 -0.7076E-05  1 -0.6172E-01
   (  1,  9,  4)  (  1, 37,  5)  (  1, 37,  5)  (  1, 29, 10)  (  1,  9,  4)
  0  0.7928E-01  0  0.2822E-01  0 -0.2473E-01  0 -0.9505E-02  0 -0.4571E-02
   (  1,  9,  4)  (  1,  8,  5)  (  1,  8,  5)  (  1, 35,  9)  (  1, 26,  7)
  0 -0.2384E-02  0  0.8809E-03  0 -0.8390E-03  0 -0.5508E-03  0 -0.2010E-03
   (  1, 37,  5)  (  1, 34,  3)  (  1, 37,  5)  (  1, 38, 10)  (  1, 27, 11)
  0  0.1015E-03  0  0.5850E-04  0 -0.1883E-04  0 -0.1787E-04  0 -0.1126E-04
   (  1, 37,  5)  (  1, 38, 10)  (  1, 21, 11)  (  1, 37,  5)  (  1,  8,  1)
  0 -0.6111E-05  1  0.1717E-01  0  0.1719E-01  0 -0.8286E-02  0 -0.7938E-02
   (  1, 37,  5)  (  1, 21, 11)  (  1,  8,  5)  (  1,  8,  5)  (  1,  9,  4)
  0 -0.3352E-02  0 -0.1296E-02  0 -0.6555E-03  0 -0.3855E-03  0 -0.2403E-03
   (  1, 34,  3)  (  1, 30,  7)  (  1, 34,  3)  (  1, 34,  7)  (  1, 37,  5)
  0 -0.1605E-03  0 -0.6987E-04  0  0.3087E-04  0  0.1977E-04  0  0.5864E-05
   (  1, 38, 10)  (  1, 28, 11)  (  1, 37,  5)  (  1, 38, 10)  (  1, 32, 11)
  1  0.5327E-02  0  0.4976E-02  0  0.2925E-02  0  0.1261E-02  0 -0.1009E-02
   (  1, 21, 12)  (  1,  8,  5)  (  1,  9,  4)  (  1, 34,  3)  (  1, 34,  3)
  0 -0.3792E-03  0 -0.2703E-03  0 -0.1162E-03  0 -0.6193E-04  0 -0.3711E-04
   (  1, 32,  8)  (  1,  8,  5)  (  1, 34,  7)  (  1, 37,  5)  (  1, 38, 10)
  0 -0.1584E-04  0 -0.9106E-05  1  0.1687E-02  0 -0.1960E-02  0 -0.8723E-03
   (  1, 28, 11)  (  1,  5,  1)  (  1,  9,  4)  (  1,  9,  4)  (  1, 19, 13)
  0  0.4670E-03  0 -0.2825E-03  0 -0.1431E-03  0 -0.6270E-04  0 -0.4738E-04
   (  1, 34,  3)  (  1, 34,  3)  (  1, 35, 10)  (  1, 26,  9)  (  1, 34,  7)
  0 -0.2388E-04  0  0.1661E-04  0 -0.5953E-05  1  0.6507E-03  0 -0.6807E-03
   (  1,  8,  5)  (  1,  8,  5)  (  1,  8,  5)  (  1,  9,  4)  (  1,  9,  4)
  0 -0.2607E-03  0  0.1381E-03  0 -0.7977E-04  0 -0.4994E-04  0  0.1772E-04
   (  1,  8,  5)  (  1, 34,  3)  (  1, 34,  3)  (  1, 28,  4)  (  1,  7,  4)
  0 -0.1609E-04  0 -0.7616E-05  1  0.1870E-03  0 -0.2059E-03  0 -0.8534E-04
   (  1,  8,  5)  (  1, 34,  7)  (  1,  9,  4)  (  1,  9,  4)  (  1,  8,  5)
  0  0.4170E-04  0 -0.2606E-04  0 -0.1628E-04  0 -0.7260E-05  1  0.5013E-04
   (  1, 34,  3)  (  1, 34,  3)  (  1, 28,  4)  (  1, 22, 13)  (  1, 21, 14)
  0 -0.4780E-04  0  0.2474E-04  0  0.1691E-04  0 -0.6886E-05  1 -0.2703E-04
   (  1,  9,  4)  (  1,  9,  4)  (  1,  8,  5)  (  1,  8,  5)  (  1, 33,  8)
  0  0.2171E-04  0 -0.1296E-04  0  0.6600E-05  1  0.8405E-05
   (  1,  9,  4)  (  1,  9,  4)  (  1,  9,  4)  (  1,  8,  5)

 MAXIMUM RESIDUAL FOR EACH ITERATION (1 INDICATES THE FIRST INNER ITERATION):

    RESIDUAL       RESIDUAL       RESIDUAL       RESIDUAL       RESIDUAL    
   LAYER,ROW,COL  LAYER,ROW,COL  LAYER,ROW,COL  LAYER,ROW,COL  LAYER,ROW,COL
 ---------------------------------------------------------------------------
  1  0.1996E+05  0   9873.      0   3655.      0  -1702.      0  -1037.    
   (  1, 14, 15)  (  1, 14, 15)  (  1, 14, 15)  (  1, 39, 12)  (  1, 39, 12)
  0   522.2      0  -330.8      0  -226.5      0  -159.7      0  -96.74    
   (  1, 14, 15)  (  1, 39, 15)  (  1, 39, 15)  (  1, 39, 15)  (  1, 39, 15)
  0  -56.41      0  -31.81      0  -17.67      0  -8.933      0  -4.920    
   (  1, 39, 15)  (  1, 39, 15)  (  1, 39, 15)  (  1, 39, 15)  (  1, 39, 15)
  0  -3.295      0  -1.331      0 -0.4808      0 -0.2000      0 -0.1033    
   (  1, 39, 15)  (  1, 39, 15)  (  1, 39, 15)  (  1, 39, 15)  (  1, 39, 15)
  0 -0.5923E-01  0 -0.2510E-01  0  0.1433E-01  0  0.7151E-02  0  0.3467E-02
   (  1, 39, 15)  (  1, 39, 15)  (  1, 14, 15)  (  1, 14, 15)  (  1, 14, 15)
  1   4327.      0   2221.      0   1098.      0  -363.7      0  -245.8    
   (  1, 14, 15)  (  1, 14, 15)  (  1, 14, 15)  (  1, 39, 12)  (  1, 39, 12)
  0   118.0      0  -69.73      0  -47.19      0  -33.56      0  -22.45    
   (  1, 14, 15)  (  1, 39, 15)  (  1, 39, 15)  (  1, 39, 15)  (  1, 39, 15)
  0  -12.97      0  -7.713      0  -4.521      0  -2.453      0  -1.849    
   (  1, 39, 15)  (  1, 39, 15)  (  1, 39, 15)  (  1, 39, 15)  (  1, 39, 15)
  0 -0.8683      0 -0.3942      0 -0.1833      0 -0.8189E-01  0 -0.4626E-01
   (  1, 39, 15)  (  1, 39, 15)  (  1, 39, 15)  (  1, 39, 15)  (  1, 39, 15)
  0 -0.2451E-01  0 -0.1431E-01  0 -0.6063E-02  0 -0.2616E-02  0 -0.1169E-02
   (  1, 39, 15)  (  1, 39, 15)  (  1, 39, 15)  (  1, 39, 15)  (  1, 39, 15)
  1   2461.      0   819.3      0   436.6      0   158.7      0   82.51    
   (  1, 14, 15)  (  1, 14, 15)  (  1, 14, 15)  (  1, 14, 15)  (  1, 14, 15)
  0   45.47      0   20.79      0  -12.08      0  -7.801      0  -5.608    
   (  1, 14, 15)  (  1, 14, 15)  (  1, 39, 15)  (  1, 39, 15)  (  1, 39, 15)
  0  -3.712      0  -2.278      0  -1.398      0 -0.7652      0 -0.4581    
   (  1, 39, 15)  (  1, 39, 15)  (  1, 39, 15)  (  1, 39, 15)  (  1, 39, 15)
  0 -0.3408      0 -0.1691      0 -0.9231E-01  0 -0.4431E-01  0 -0.2240E-01
   (  1, 39, 15)  (  1, 39, 15)  (  1, 39, 15)  (  1, 39, 15)  (  1, 39, 15)
  0 -0.1574E-01  0 -0.8254E-02  0 -0.3489E-02  1   698.6      0   278.0    
   (  1, 39, 15)  (  1, 39, 15)  (  1, 39, 15)  (  1, 14, 15)  (  1, 14, 15)
  0   117.9      0   60.79      0   35.17      0   18.16      0   8.613    
   (  1, 14, 15)  (  1, 14, 15)  (  1, 14, 15)  (  1, 14, 15)  (  1, 14, 15)
  0   4.585      0  -2.582      0  -1.696      0  -1.083      0 -0.6695    
   (  1, 14, 15)  (  1, 39, 15)  (  1, 39, 15)  (  1, 39, 15)  (  1, 39, 15)
  0 -0.4045      0 -0.2449      0 -0.1415      0 -0.1061      0 -0.6095E-01
   (  1, 39, 15)  (  1, 39, 15)  (  1, 39, 15)  (  1, 39, 15)  (  1, 39, 15)
  0 -0.3486E-01  0 -0.1752E-01  0 -0.9374E-02  0 -0.6823E-02  0 -0.3615E-02
   (  1, 39, 15)  (  1, 39, 15)  (  1, 39, 15)  (  1, 39, 15)  (  1, 39, 15)
  1   313.0      0   141.8      0   70.09      0   25.64      0   14.08    
   (  1, 14, 15)  (  1, 14, 15)  (  1, 14, 15)  (  1, 14, 15)  (  1, 14, 15)
  0   5.869      0   2.741      0   1.497      0  0.8480      0 -0.4915    
   (  1, 14, 15)  (  1, 14, 15)  (  1, 14, 15)  (  1, 14, 15)  (  1, 39, 15)
  0 -0.3078      0 -0.1977      0 -0.1227      0 -0.7758E-01  0 -0.6234E-01
   (  1, 39, 15)  (  1, 39, 15)  (  1, 39, 15)  (  1, 39, 15)  (  1, 39, 15)
  0 -0.3576E-01  0 -0.1999E-01  0 -0.1093E-01  0 -0.5592E-02  0 -0.2816E-02
   (  1, 39, 15)  (  1, 39, 15)  (  1, 39, 15)  (  1, 39, 15)  (  1, 39, 15)
  0 -0.2121E-02  1   125.0      0   56.21      0   26.70      0   8.984    
   (  1, 39, 15)  (  1, 14, 15)  (  1, 14, 15)  (  1, 14, 15)  (  1, 14, 15)
  0   4.687      0   2.289      0   1.070      0  0.6012      0  0.3102    
   (  1, 14, 15)  (  1, 14, 15)  (  1, 14, 15)  (  1, 14, 15)  (  1, 14, 15)
  0 -0.1505      0 -0.1037      0 -0.6241E-01  0 -0.3958E-01  0 -0.2583E-01
   (  1, 39, 15)  (  1, 39, 15)  (  1, 39, 15)  (  1, 39, 15)  (  1, 39, 15)
  0 -0.2102E-01  0 -0.1205E-01  0 -0.6417E-02  0 -0.3575E-02  1   38.34    
   (  1, 39, 15)  (  1, 39, 15)  (  1, 39, 15)  (  1, 39, 15)  (  1, 14, 15)
  0   17.05      0   8.889      0   3.432      0   1.404      0  0.7235    
   (  1, 14, 15)  (  1, 14, 15)  (  1, 14, 15)  (  1, 14, 15)  (  1, 14, 15)
  0  0.3315      0  0.1979      0  0.1066      0  0.4802E-01  0 -0.3171E-01
   (  1, 14, 15)  (  1, 14, 15)  (  1, 14, 15)  (  1, 14, 15)  (  1, 39, 15)
  0 -0.1906E-01  0 -0.1202E-01  0 -0.7736E-02  0 -0.4494E-02  0 -0.3570E-02
   (  1, 39, 15)  (  1, 39, 15)  (  1, 39, 15)  (  1, 39, 15)  (  1, 39, 15)
  0 -0.2051E-02  1   11.80      0   4.564      0   2.499      0   1.243    
   (  1, 39, 15)  (  1, 14, 15)  (  1, 14, 15)  (  1, 14, 15)  (  1, 14, 15)
  0  0.5332      0  0.2769      0  0.1388      0  0.7192E-01  0  0.3566E-01
   (  1, 14, 15)  (  1, 14, 15)  (  1, 14, 15)  (  1, 14, 15)  (  1, 14, 15)
  0  0.1678E-01  0 -0.9745E-02  0 -0.5840E-02  0 -0.3578E-02  0 -0.2363E-02
   (  1, 14, 15)  (  1, 39, 15)  (  1, 39, 15)  (  1, 39, 15)  (  1, 39, 15)
  1   4.172      0   2.214      0  0.8957      0  0.4381      0  0.1802    
   (  1, 14, 15)  (  1, 14, 15)  (  1, 14, 15)  (  1, 14, 15)  (  1, 14, 15)
  0  0.8309E-01  0  0.4543E-01  0  0.2051E-01  0  0.9687E-02  0  0.5061E-02
   (  1, 14, 15)  (  1, 14, 15)  (  1, 14, 15)  (  1, 14, 15)  (  1, 14, 15)
  0  0.2951E-02  0 -0.1759E-02  1   1.492      0  0.7835      0  0.3047    
   (  1, 14, 15)  (  1, 39, 15)  (  1, 14, 15)  (  1, 14, 15)  (  1, 14, 15)
  0  0.1479      0  0.6422E-01  0  0.2725E-01  0  0.1352E-01  0  0.6014E-02
   (  1, 14, 15)  (  1, 14, 15)  (  1, 14, 15)  (  1, 14, 15)  (  1, 14, 15)
  0  0.3090E-02  0  0.1796E-02  0  0.9674E-03  1  0.4854      0  0.2540    
   (  1, 14, 15)  (  1, 14, 15)  (  1, 14, 15)  (  1, 14, 15)  (  1, 14, 15)
  0  0.1058      0  0.4894E-01  0  0.2250E-01  0  0.9440E-02  0  0.4647E-02
   (  1, 14, 15)  (  1, 14, 15)  (  1, 14, 15)  (  1, 14, 15)  (  1, 14, 15)
  0  0.2077E-02  0  0.1120E-02  1  0.1479      0  0.7536E-01  0  0.3593E-01
   (  1, 14, 15)  (  1, 14, 15)  (  1, 14, 15)  (  1, 14, 15)  (  1, 14, 15)
  0  0.1585E-01  0  0.6944E-02  0  0.2888E-02  0  0.1362E-02  1  0.4744E-01
   (  1, 14, 15)  (  1, 14, 15)  (  1, 14, 15)  (  1, 14, 15)  (  1, 14, 15)
  0  0.1869E-01  0  0.1041E-01  0  0.4621E-02  0  0.2151E-02  1  0.5326E-01
   (  1, 14, 15)  (  1, 14, 15)  (  1, 14, 15)  (  1, 14, 15)  (  1, 14, 15)
  0  0.1431E-01  0  0.5948E-02  0  0.1458E-02  1  0.2611E-01
   (  1, 14, 15)  (  1, 14, 15)  (  1, 14, 15)  (  1, 14, 15)



 OUTPUT CONTROL FOR STRESS PERIOD    1   TIME STEP    1
    SAVE HEAD FOR ALL LAYERS
    SAVE BUDGET
 UBDSV2 SAVING "   CONSTANT HEAD" ON UNIT  53 AT TIME STEP  1, STRESS PERIOD   1
 UBDSV1 SAVING "FLOW RIGHT FACE " ON UNIT  53 AT TIME STEP  1, STRESS PERIOD   1
 UBDSV1 SAVING "FLOW FRONT FACE " ON UNIT  53 AT TIME STEP  1, STRESS PERIOD   1

 HEAD WILL BE SAVED ON UNIT   51 AT END OF TIME STEP    1, STRESS PERIOD    1
1
  VOLUMETRIC BUDGET FOR ENTIRE MODEL AT END OF TIME STEP    1, STRESS PERIOD   1
  ------------------------------------------------------------------------------

     CUMULATIVE VOLUMES      L**3       RATES FOR THIS TIME STEP      L**3/T
     ------------------                 ------------------------

           IN:                                      IN:
           ---                                      ---
             STORAGE =           0.0000               STORAGE =           0.0000
       CONSTANT HEAD =           0.0000         CONSTANT HEAD =           0.0000
               WELLS =         584.2394                 WELLS =         584.2394
       RIVER LEAKAGE =         182.8767         RIVER LEAKAGE =         182.8767
            RECHARGE =        6204.9995              RECHARGE =        6204.9995

            TOTAL IN =        6972.1157              TOTAL IN =        6972.1157

          OUT:                                     OUT:
          ----                                     ----
             STORAGE =           0.0000               STORAGE =           0.0000
       CONSTANT HEAD =         546.6043         CONSTANT HEAD =         546.6043
               WELLS =           0.0000                 WELLS =           0.0000
       RIVER LEAKAGE =        6425.8188         RIVER LEAKAGE =        6425.8188
            RECHARGE =           0.0000              RECHARGE =           0.0000

           TOTAL OUT =        6972.4233             TOTAL OUT =        6972.4233

            IN - OUT =          -0.3076              IN - OUT =          -0.3076

 PERCENT DISCREPANCY =          -0.00     PERCENT DISCREPANCY =          -0.00






         TIME SUMMARY AT END OF TIME STEP    1 IN STRESS PERIOD    1
                    SECONDS     MINUTES      HOURS       DAYS        YEARS
                    -----------------------------------------------------------
   TIME STEP LENGTH  86400.      1440.0      24.000      1.0000     2.73785E-03
 STRESS PERIOD TIME  86400.      1440.0      24.000      1.0000     2.73785E-03
         TOTAL TIME  86400.      1440.0      24.000      1.0000     2.73785E-03
1
1
                            STRESS PERIOD NO.    2, LENGTH =   1825.000    
                            -----------------------------------------------

                              NUMBER OF TIME STEPS =     1

                               MULTIPLIER FOR DELT =     1.000

                            INITIAL TIME STEP SIZE =   1825.000    

 WELL NO.  LAYER   ROW   COL   STRESS RATE         
 --------------------------------------------------
      1      1      9     16       100.7    
      2      1     11     13       146.0    
      3      1     20     14       63.86    
      4      1     26     10       96.88    
      5      1     29      6       60.75    
      6      1     34     12       99.62    

      6 WELLS

 REUSING NON-PARAMETER RIVER REACHES FROM LAST STRESS PERIOD

     40 RIVER REACHES

 OPENING FILE ON UNIT   99:
 rech_1.ref                                                                                                                                                                                              



                           RECHARGE
 READING ON UNIT   99 WITH FORMAT: (20G15.6)           

 SOLVING FOR HEAD 


    11 CALLS TO PCG ROUTINE FOR TIME STEP   1 IN STRESS PERIOD    2
    83 TOTAL ITERATIONS

 MAXIMUM HEAD CHANGE FOR EACH ITERATION (1 INDICATES THE FIRST INNER ITERATION):

    HEAD CHANGE    HEAD CHANGE    HEAD CHANGE    HEAD CHANGE    HEAD CHANGE 
   LAYER,ROW,COL  LAYER,ROW,COL  LAYER,ROW,COL  LAYER,ROW,COL  LAYER,ROW,COL
 ---------------------------------------------------------------------------
  1  -2.401      0 -0.5017      0 -0.1771      0 -0.8560E-01  0 -0.3212E-01
   (  1, 12,  2)  (  1,  8,  5)  (  1,  1,  9)  (  1, 15,  2)  (  1,  3,  7)
  0 -0.1103E-01  0  0.8844E-02  0 -0.3678E-02  0 -0.1191E-02  0  0.5174E-03
   (  1,  4,  1)  (  1, 34,  3)  (  1, 15,  3)  (  1,  3,  2)  (  1, 19,  9)
  0  0.2446E-03  0 -0.1146E-03  0  0.3237E-04  0 -0.1571E-04  0  0.6546E-05
   (  1, 37,  5)  (  1,  4,  1)  (  1, 30, 10)  (  1,  8,  5)  (  1,  8,  5)
  1 -0.2592      0 -0.1241      0 -0.4682E-01  0 -0.1700E-01  0 -0.9111E-02
   (  1, 29,  6)  (  1,  8,  1)  (  1,  8,  6)  (  1, 34,  3)  (  1, 28,  4)
  0 -0.3023E-02  0  0.1513E-02  0 -0.7350E-03  0  0.2312E-03  0  0.8997E-04
   (  1,  5,  3)  (  1, 34,  3)  (  1,  8,  5)  (  1, 34,  7)  (  1, 32,  1)
  0  0.4426E-04  0  0.1736E-04  0  0.7012E-05  1 -0.7273E-01  0 -0.2464E-01
   (  1,  4, 11)  (  1, 22, 13)  (  1, 34,  3)  (  1,  5, 10)  (  1,  8,  1)
  0 -0.1053E-01  0  0.4275E-02  0 -0.2352E-02  0  0.7209E-03  0  0.4297E-03
   (  1, 14,  1)  (  1,  8,  5)  (  1,  8,  5)  (  1, 28,  3)  (  1, 34,  3)
  0 -0.2164E-03  0  0.8300E-04  0  0.1904E-04  0  0.1219E-04  0  0.5580E-05
   (  1,  8,  5)  (  1,  8,  5)  (  1, 21, 11)  (  1,  4, 11)  (  1, 22, 13)
  1  0.2179E-01  0  0.6592E-02  0 -0.1972E-02  0  0.1060E-02  0  0.3677E-03
   (  1, 12,  2)  (  1, 16,  1)  (  1, 34,  7)  (  1, 15,  2)  (  1, 26,  2)
  0  0.3019E-03  0  0.8741E-04  0 -0.5782E-04  0  0.2570E-04  0  0.7608E-05
   (  1, 34,  3)  (  1, 28,  3)  (  1,  8,  5)  (  1,  7,  5)  (  1, 21, 11)
  1  0.5953E-02  0 -0.1987E-02  0  0.9353E-03  0  0.3408E-03  0  0.1516E-03
   (  1, 12,  2)  (  1, 29, 10)  (  1,  7,  5)  (  1,  9,  4)  (  1, 26,  2)
  0  0.9605E-04  0  0.2751E-04  0  0.1675E-04  0 -0.5348E-05  1  0.1510E-02
   (  1, 33,  2)  (  1, 13,  3)  (  1, 14,  1)  (  1, 22, 12)  (  1, 13,  2)
  0 -0.6106E-03  0  0.3123E-03  0  0.1099E-03  0  0.4696E-04  0  0.2919E-04
   (  1, 29, 10)  (  1,  7,  5)  (  1, 27, 11)  (  1, 26,  2)  (  1, 33,  2)
  0  0.9486E-05  1  0.4266E-03  0  0.1787E-03  0  0.8818E-04  0  0.3614E-04
   (  1, 12,  3)  (  1,  7,  7)  (  1,  9,  4)  (  1,  7,  5)  (  1, 27, 11)
  0  0.1088E-04  0  0.7777E-05  1  0.1415E-03  0  0.5632E-04  0 -0.2018E-04
   (  1,  8,  5)  (  1, 33,  2)  (  1,  7,  8)  (  1,  9,  4)  (  1,  7, 13)
  0  0.8245E-05  1  0.4335E-04  0  0.2225E-04  0  0.1046E-04  0  0.3303E-05
   (  1,  1, 10)  (  1,  7,  8)  (  1, 34,  3)  (  1, 28,  4)  (  1, 33, 14)
  1  0.1200E-04  0  0.7204E-05  1  0.4275E-05
   (  1,  7,  8)  (  1, 34,  3)  (  1, 28,  4)

 MAXIMUM RESIDUAL FOR EACH ITERATION (1 INDICATES THE FIRST INNER ITERATION):

    RESIDUAL       RESIDUAL       RESIDUAL       RESIDUAL       RESIDUAL    
   LAYER,ROW,COL  LAYER,ROW,COL  LAYER,ROW,COL  LAYER,ROW,COL  LAYER,ROW,COL
 ---------------------------------------------------------------------------
  1   46.38      0  -29.01      0   14.62      0   7.954      0   3.118    
   (  1, 17, 14)  (  1, 14,  1)  (  1, 24, 15)  (  1, 24, 15)  (  1, 24, 15)
  0   1.330      0  0.6270      0  0.2825      0  0.1130      0  0.4430E-01
   (  1, 24, 15)  (  1, 24, 15)  (  1, 20, 15)  (  1, 20, 15)  (  1, 20, 15)
  0  0.1943E-01  0  0.7876E-02  0  0.3480E-02  0  0.1434E-02  0  0.6573E-03
   (  1, 16, 15)  (  1, 16, 15)  (  1, 16, 15)  (  1, 16, 15)  (  1, 17, 15)
  1  -12.81      0   7.427      0   4.085      0   2.057      0   1.065    
   (  1, 14,  1)  (  1, 14,  1)  (  1, 24, 15)  (  1, 24, 15)  (  1, 24, 15)
  0  0.4804      0  0.2132      0  0.8361E-01  0  0.3342E-01  0  0.1293E-01
   (  1, 24, 15)  (  1, 24, 15)  (  1, 24, 15)  (  1, 24, 15)  (  1, 24, 15)
  0  0.5161E-02  0  0.2083E-02  0  0.8810E-03  1   3.813      0  -2.261    
   (  1, 24, 15)  (  1, 24, 15)  (  1, 20, 15)  (  1, 17, 14)  (  1, 13,  2)
  0   1.142      0  0.5581      0  0.2554      0  0.1206      0  0.6123E-01
   (  1, 24, 15)  (  1, 24, 15)  (  1, 24, 15)  (  1, 24, 15)  (  1, 24, 15)
  0  0.2619E-01  0  0.1056E-01  0  0.4484E-02  0  0.1852E-02  0  0.7751E-03
   (  1, 24, 15)  (  1, 24, 15)  (  1, 24, 15)  (  1, 24, 15)  (  1, 24, 15)
  1   1.160      0  0.6341      0  0.3123      0  0.1459      0  0.7196E-01
   (  1, 17, 14)  (  1, 24, 15)  (  1, 24, 15)  (  1, 24, 15)  (  1, 24, 15)
  0  0.3402E-01  0  0.1573E-01  0  0.7039E-02  0  0.2874E-02  0  0.1291E-02
   (  1, 24, 15)  (  1, 24, 15)  (  1, 24, 15)  (  1, 24, 15)  (  1, 24, 15)
  1  0.3489      0  0.2006      0  0.9213E-01  0  0.4276E-01  0  0.2210E-01
   (  1, 17, 14)  (  1, 24, 15)  (  1, 24, 15)  (  1, 24, 15)  (  1, 24, 15)
  0  0.9753E-02  0  0.4414E-02  0  0.1857E-02  0  0.7342E-03  1  0.1040    
   (  1, 24, 15)  (  1, 24, 15)  (  1, 24, 15)  (  1, 24, 15)  (  1, 17, 14)
  0  0.6174E-01  0  0.2709E-01  0  0.1203E-01  0  0.6046E-02  0  0.2647E-02
   (  1, 24, 15)  (  1, 24, 15)  (  1, 24, 15)  (  1, 24, 15)  (  1, 24, 15)
  0  0.1180E-02  1  0.3065E-01  0  0.1848E-01  0  0.7811E-02  0  0.3196E-02
   (  1, 24, 15)  (  1, 17, 14)  (  1, 24, 15)  (  1, 24, 15)  (  1, 24, 15)
  0  0.1486E-02  0  0.6244E-03  1  0.9511E-02  0  0.5401E-02  0  0.2263E-02
   (  1, 24, 15)  (  1, 24, 15)  (  1, 24, 15)  (  1, 24, 15)  (  1, 24, 15)
  0  0.9876E-03  1  0.3268E-02  0  0.1843E-02  0  0.9264E-03  0  0.3875E-03
   (  1, 24, 15)  (  1, 24, 15)  (  1, 24, 15)  (  1, 20, 15)  (  1, 27, 15)
  1  0.1136E-02  0  0.5969E-03  1  0.6648E-03
   (  1, 24, 15)  (  1, 20, 15)  (  1, 27, 15)



 OUTPUT CONTROL FOR STRESS PERIOD    2   TIME STEP    1
    SAVE HEAD FOR ALL LAYERS
    SAVE BUDGET
 UBDSV1 SAVING "         STORAGE" ON UNIT  53 AT TIME STEP  1, STRESS PERIOD   2
 UBDSV2 SAVING "   CONSTANT HEAD" ON UNIT  53 AT TIME STEP  1, STRESS PERIOD   2
 UBDSV1 SAVING "FLOW RIGHT FACE " ON UNIT  53 AT TIME STEP  1, STRESS PERIOD   2
 UBDSV1 SAVING "FLOW FRONT FACE " ON UNIT  53 AT TIME STEP  1, STRESS PERIOD   2

 HEAD WILL BE SAVED ON UNIT   51 AT END OF TIME STEP    1, STRESS PERIOD    2
1
  VOLUMETRIC BUDGET FOR ENTIRE MODEL AT END OF TIME STEP    1, STRESS PERIOD   2
  ------------------------------------------------------------------------------

     CUMULATIVE VOLUMES      L**3       RATES FOR THIS TIME STEP      L**3/T
     ------------------                 ------------------------

           IN:                                      IN:
           ---                                      ---
             STORAGE =     2600290.5000               STORAGE =        1424.8168
       CONSTANT HEAD =           0.0000         CONSTANT HEAD =           0.0000
               WELLS =     1036842.3125                 WELLS =         567.8126
       RIVER LEAKAGE =      389405.2500         RIVER LEAKAGE =         213.2725
            RECHARGE =     4720281.0000              RECHARGE =        2583.0554

            TOTAL IN =     8746819.0000              TOTAL IN =        4788.9570

          OUT:                                     OUT:
          ----                                     ----
             STORAGE =           0.0000               STORAGE =           0.0000
       CONSTANT HEAD =      651644.0625         CONSTANT HEAD =         356.7657
               WELLS =           0.0000                 WELLS =           0.0000
       RIVER LEAKAGE =     8095226.0000         RIVER LEAKAGE =        4432.2192
            RECHARGE =           0.0000              RECHARGE =           0.0000

           TOTAL OUT =     8746870.0000             TOTAL OUT =        4788.9849

            IN - OUT =         -51.0000              IN - OUT =      -2.7832E-02

 PERCENT DISCREPANCY =          -0.00     PERCENT DISCREPANCY =          -0.00






         TIME SUMMARY AT END OF TIME STEP    1 IN STRESS PERIOD    2
                    SECONDS     MINUTES      HOURS       DAYS        YEARS
                    -----------------------------------------------------------
   TIME STEP LENGTH 1.57680E+08 2.62800E+06  43800.      1825.0      4.9966    
 STRESS PERIOD TIME 1.57680E+08 2.62800E+06  43800.      1825.0      4.9966    
         TOTAL TIME 1.57766E+08 2.62944E+06  43824.      1826.0      4.9993    
1
1
                            STRESS PERIOD NO.    3, LENGTH =   1.000000    
                            -----------------------------------------------

                              NUMBER OF TIME STEPS =     1

                               MULTIPLIER FOR DELT =     1.000

                            INITIAL TIME STEP SIZE =   1.000000    

 WELL NO.  LAYER   ROW   COL   STRESS RATE         
 --------------------------------------------------
      1      1      9     16       100.7    
      2      1     11     13       146.0    
      3      1     20     14       63.86    
      4      1     26     10       96.88    
      5      1     29      6       60.75    
      6      1     34     12       99.62    

      6 WELLS

 REUSING NON-PARAMETER RIVER REACHES FROM LAST STRESS PERIOD

     40 RIVER REACHES

 OPENING FILE ON UNIT   99:
 rech_2.ref                                                                                                                                                                                              



                           RECHARGE
 READING ON UNIT   99 WITH FORMAT: (20G15.6)           

 SOLVING FOR HEAD 


    11 CALLS TO PCG ROUTINE FOR TIME STEP   1 IN STRESS PERIOD    3
   124 TOTAL ITERATIONS

 MAXIMUM HEAD CHANGE FOR EACH ITERATION (1 INDICATES THE FIRST INNER ITERATION):

    HEAD CHANGE    HEAD CHANGE    HEAD CHANGE    HEAD CHANGE    HEAD CHANGE 
   LAYER,ROW,COL  LAYER,ROW,COL  LAYER,ROW,COL  LAYER,ROW,COL  LAYER,ROW,COL
 ---------------------------------------------------------------------------
  1  -2.853      0  -2.739      0  -1.055      0 -0.6243      0 -0.3274    
   (  1,  9,  4)  (  1,  8,  5)  (  1,  1,  5)  (  1,  1,  9)  (  1,  9,  4)
  0 -0.1624      0 -0.1130      0 -0.7137E-01  0 -0.3946E-01  0  0.1533E-01
   (  1,  1,  6)  (  1,  2,  3)  (  1,  4,  1)  (  1,  4,  1)  (  1, 31, 12)
  0 -0.7053E-02  0 -0.5498E-02  0  0.2297E-02  0 -0.1136E-02  0  0.1040E-02
   (  1, 15,  2)  (  1,  3,  2)  (  1, 11,  1)  (  1,  5,  1)  (  1,  9,  4)
  0 -0.5505E-03  0  0.3663E-03  0 -0.1209E-03  0  0.7804E-04  0  0.4748E-04
   (  1,  8,  1)  (  1, 34,  3)  (  1, 34,  3)  (  1, 22, 13)  (  1, 32,  1)
  0 -0.1790E-04  0  0.1146E-04  0 -0.6635E-05  1 -0.4387      0 -0.2295    
   (  1, 34,  3)  (  1, 32,  1)  (  1,  8,  1)  (  1, 26,  5)  (  1, 34,  3)
  0 -0.1395      0  0.7202E-01  0 -0.2723E-01  0 -0.2291E-01  0  0.1791E-01
   (  1,  9,  4)  (  1,  9,  4)  (  1, 34,  4)  (  1,  8,  5)  (  1, 35,  9)
  0  0.7347E-02  0 -0.7332E-02  0  0.2279E-02  0 -0.1269E-02  0 -0.6711E-03
   (  1,  8,  5)  (  1,  7,  4)  (  1,  8,  5)  (  1, 11,  1)  (  1, 38, 10)
  0 -0.3292E-03  0  0.1939E-03  0 -0.8993E-04  0 -0.7663E-04  0  0.4806E-04
   (  1, 21, 12)  (  1, 19,  9)  (  1,  8,  5)  (  1,  8,  1)  (  1, 10,  4)
  0 -0.1762E-04  0 -0.7551E-05  1  0.1179      0 -0.5846E-01  0 -0.7307E-01
   (  1,  7,  1)  (  1,  4, 11)  (  1,  9,  4)  (  1,  9,  4)  (  1,  8,  5)
  0 -0.2141E-01  0  0.9614E-02  0  0.6938E-02  0  0.3405E-02  0  0.2137E-02
   (  1, 34,  3)  (  1,  9,  4)  (  1, 16,  2)  (  1, 25,  1)  (  1,  1,  1)
  0  0.1180E-02  0  0.7928E-03  0  0.4508E-03  0  0.2875E-03  0  0.9770E-04
   (  1,  2,  1)  (  1, 26,  2)  (  1,  2,  1)  (  1,  2,  1)  (  1,  1, 10)
  0  0.6515E-04  0  0.6246E-04  0  0.2156E-04  0  0.1132E-04  0 -0.5143E-05
   (  1,  8,  5)  (  1,  9,  4)  (  1,  2,  3)  (  1,  3,  2)  (  1, 22, 12)
  1  0.3892E-01  0  0.1693E-01  0 -0.1867E-01  0 -0.8550E-02  0  0.4504E-02
   (  1,  9,  4)  (  1,  8,  5)  (  1,  8,  5)  (  1, 34,  3)  (  1,  9,  4)
  0  0.3099E-02  0  0.1373E-02  0  0.9111E-03  0  0.6706E-03  0  0.2388E-03
   (  1, 24,  1)  (  1, 32,  1)  (  1, 25,  1)  (  1,  2,  1)  (  1,  2,  1)
  0  0.1657E-03  0  0.5601E-04  0 -0.2674E-04  0  0.9868E-05  1  0.8648E-02
   (  1,  2,  1)  (  1,  3,  7)  (  1, 34,  7)  (  1, 35,  9)  (  1,  8,  5)
  0  0.3861E-02  0 -0.3159E-02  0  0.1618E-02  0  0.1001E-02  0  0.5432E-03
   (  1, 32,  1)  (  1, 34,  7)  (  1,  7,  4)  (  1, 24,  1)  (  1,  1,  9)
  0  0.5250E-03  0  0.3043E-03  0  0.1628E-03  0  0.4461E-04  0  0.3854E-04
   (  1,  9,  4)  (  1,  8,  5)  (  1,  2,  5)  (  1,  3,  2)  (  1,  3,  2)
  0  0.1728E-04  0 -0.7325E-05  1  0.2373E-02  0  0.1879E-02  0 -0.9214E-03
   (  1,  5,  1)  (  1, 34,  3)  (  1,  8,  5)  (  1,  9,  4)  (  1,  9,  4)
  0 -0.6232E-03  0  0.2764E-03  0  0.1977E-03  0  0.1232E-03  0  0.5988E-04
   (  1, 34,  3)  (  1,  2,  1)  (  1, 26,  3)  (  1,  1, 10)  (  1,  4,  1)
  0  0.2880E-04  0  0.1611E-04  0 -0.6262E-05  1  0.4567E-03  0  0.4734E-03
   (  1,  2,  5)  (  1,  7,  1)  (  1,  8,  7)  (  1,  8,  5)  (  1,  9,  4)
  0  0.2103E-03  0 -0.1651E-03  0 -0.6689E-04  0  0.5355E-04  0  0.2923E-04
   (  1, 32,  1)  (  1, 34,  3)  (  1, 33, 10)  (  1, 28,  4)  (  1,  7,  5)
  0 -0.1597E-04  0  0.1631E-04  0 -0.4477E-05  1 -0.1693E-03  0 -0.1084E-03
   (  1,  8,  6)  (  1,  7,  4)  (  1,  7,  4)  (  1,  9,  4)  (  1,  8,  5)
  0  0.6550E-04  0 -0.3981E-04  0 -0.1804E-04  0  0.1519E-04  0 -0.8119E-05
   (  1,  8,  6)  (  1, 34,  3)  (  1, 33, 10)  (  1, 28,  4)  (  1, 34,  7)
  1 -0.5878E-04  0 -0.3716E-04  0  0.2820E-04  0 -0.1337E-04  0 -0.5216E-05
   (  1,  9,  4)  (  1,  8,  5)  (  1,  8,  6)  (  1,  8,  4)  (  1, 24,  1)
  1 -0.1622E-04  0 -0.1035E-04  0  0.9857E-05  1 -0.5721E-05
   (  1,  9,  4)  (  1,  8,  5)  (  1,  8,  6)  (  1,  8,  5)

 MAXIMUM RESIDUAL FOR EACH ITERATION (1 INDICATES THE FIRST INNER ITERATION):

    RESIDUAL       RESIDUAL       RESIDUAL       RESIDUAL       RESIDUAL    
   LAYER,ROW,COL  LAYER,ROW,COL  LAYER,ROW,COL  LAYER,ROW,COL  LAYER,ROW,COL
 ---------------------------------------------------------------------------
  1   64.41      0  -44.93      0   41.00      0  -25.62      0   21.72    
   (  1,  6,  5)  (  1,  7,  6)  (  1,  6, 14)  (  1,  7, 13)  (  1, 24, 15)
  0   16.84      0   9.594      0   5.849      0   3.299      0   1.763    
   (  1, 24, 15)  (  1, 24, 15)  (  1,  2, 15)  (  1,  2, 15)  (  1,  2, 15)
  0  0.8095      0  0.4116      0  0.1985      0  0.1043      0  0.7917E-01
   (  1,  1, 15)  (  1,  1, 15)  (  1,  1, 15)  (  1,  1, 15)  (  1,  1, 15)
  0  0.4393E-01  0  0.2204E-01  0  0.1137E-01  0  0.6626E-02  0  0.3532E-02
   (  1,  3, 12)  (  1,  1, 15)  (  1,  1, 15)  (  1,  1, 15)  (  1,  1, 15)
  0  0.2521E-02  0  0.1629E-02  0  0.9065E-03  1  -10.14      0   8.353    
   (  1,  1, 15)  (  1,  1, 15)  (  1,  1, 15)  (  1, 26, 10)  (  1,  6, 14)
  0   6.159      0   5.994      0   5.027      0   3.375      0   1.844    
   (  1, 24, 15)  (  1, 24, 15)  (  1, 24, 15)  (  1, 24, 15)  (  1, 24, 15)
  0   1.088      0  0.6418      0  0.3535      0  0.1638      0  0.7870E-01
   (  1, 24, 15)  (  1, 24, 15)  (  1, 24, 15)  (  1, 24, 15)  (  1, 24, 15)
  0  0.3736E-01  0  0.1836E-01  0  0.1006E-01  0  0.7162E-02  0  0.3869E-02
   (  1, 24, 15)  (  1, 24, 15)  (  1, 24, 15)  (  1, 24, 15)  (  1, 24, 15)
  0  0.1953E-02  0  0.1011E-02  1  -2.872      0   2.373      0   2.420    
   (  1,  1, 15)  (  1,  1, 15)  (  1,  6,  5)  (  1, 17, 14)  (  1, 17, 14)
  0   1.671      0   1.280      0  0.7952      0  0.4129      0  0.2100    
   (  1, 24, 15)  (  1, 24, 15)  (  1, 24, 15)  (  1, 24, 15)  (  1, 24, 15)
  0  0.1298      0  0.7385E-01  0  0.3892E-01  0  0.1897E-01  0  0.9586E-02
   (  1, 24, 15)  (  1, 24, 15)  (  1, 24, 15)  (  1, 24, 15)  (  1, 24, 15)
  0  0.5852E-02  0  0.3979E-02  0  0.2062E-02  0  0.9447E-03  0  0.5460E-03
   (  1, 24, 15)  (  1, 24, 15)  (  1, 24, 15)  (  1, 28, 15)  (  1, 27, 15)
  1 -0.8134      0  0.7191      0  0.7198      0  0.4779      0  0.3290    
   (  1,  6,  5)  (  1, 17, 14)  (  1, 17, 14)  (  1, 24, 15)  (  1, 24, 15)
  0  0.1972      0  0.1243      0  0.7183E-01  0  0.3375E-01  0  0.1556E-01
   (  1, 24, 15)  (  1, 24, 15)  (  1, 24, 15)  (  1, 24, 15)  (  1, 24, 15)
  0  0.7625E-02  0  0.3535E-02  0  0.1911E-02  0  0.1133E-02  1  0.1893    
   (  1, 24, 15)  (  1, 24, 15)  (  1, 28, 15)  (  1, 28, 15)  (  1,  3, 14)
  0  0.2417      0  0.1534      0  0.1077      0  0.6414E-01  0  0.3671E-01
   (  1, 17, 14)  (  1, 24, 15)  (  1, 24, 15)  (  1, 24, 15)  (  1, 24, 15)
  0  0.2487E-01  0  0.1678E-01  0  0.8356E-02  0  0.3858E-02  0  0.1844E-02
   (  1, 24, 15)  (  1, 24, 15)  (  1, 24, 15)  (  1, 24, 15)  (  1, 24, 15)
  0  0.1008E-02  0  0.5661E-03  1 -0.6414E-01  0  0.6948E-01  0  0.5169E-01
   (  1, 28, 15)  (  1, 28, 15)  (  1, 34, 12)  (  1, 17, 14)  (  1, 24, 15)
  0  0.3701E-01  0  0.2171E-01  0  0.1352E-01  0  0.7238E-02  0  0.3661E-02
   (  1, 24, 15)  (  1, 24, 15)  (  1, 34, 15)  (  1, 34, 15)  (  1, 24, 15)
  0  0.1913E-02  0  0.9704E-03  0  0.5448E-03  1 -0.2456E-01  0  0.2036E-01
   (  1, 24, 15)  (  1, 24, 15)  (  1, 28, 15)  (  1, 26, 10)  (  1, 17, 14)
  0  0.1497E-01  0  0.1040E-01  0  0.6282E-02  0  0.4306E-02  0  0.2541E-02
   (  1, 24, 15)  (  1, 24, 15)  (  1, 24, 15)  (  1, 34, 15)  (  1, 34, 15)
  0  0.1349E-02  0  0.6399E-03  0  0.3449E-03  1 -0.8156E-02  0  0.5830E-02
   (  1, 34, 15)  (  1, 27, 15)  (  1, 27, 15)  (  1, 34, 12)  (  1, 17, 14)
  0  0.4507E-02  0  0.2864E-02  0  0.1979E-02  0  0.1306E-02  0  0.7433E-03
   (  1, 24, 15)  (  1, 24, 15)  (  1, 34, 15)  (  1, 34, 15)  (  1, 34, 15)
  1 -0.2533E-02  0  0.1954E-02  0  0.1511E-02  0  0.8654E-03  0  0.6097E-03
   (  1, 34, 12)  (  1, 27, 15)  (  1, 24, 15)  (  1, 27, 15)  (  1, 34, 15)
  1  0.1083E-02  0  0.8548E-03  0  0.5684E-03  1  0.6946E-03
   (  1, 27, 15)  (  1, 27, 15)  (  1, 27, 15)  (  1, 27, 15)



 OUTPUT CONTROL FOR STRESS PERIOD    3   TIME STEP    1
    SAVE HEAD FOR ALL LAYERS
    SAVE BUDGET
 UBDSV2 SAVING "   CONSTANT HEAD" ON UNIT  53 AT TIME STEP  1, STRESS PERIOD   3
 UBDSV1 SAVING "FLOW RIGHT FACE " ON UNIT  53 AT TIME STEP  1, STRESS PERIOD   3
 UBDSV1 SAVING "FLOW FRONT FACE " ON UNIT  53 AT TIME STEP  1, STRESS PERIOD   3

 HEAD WILL BE SAVED ON UNIT   51 AT END OF TIME STEP    1, STRESS PERIOD    3
1
  VOLUMETRIC BUDGET FOR ENTIRE MODEL AT END OF TIME STEP    1, STRESS PERIOD   3
  ------------------------------------------------------------------------------

     CUMULATIVE VOLUMES      L**3       RATES FOR THIS TIME STEP      L**3/T
     ------------------                 ------------------------

           IN:                                      IN:
           ---                                      ---
             STORAGE =     2600290.5000               STORAGE =           0.0000
       CONSTANT HEAD =          11.1428         CONSTANT HEAD =          11.1428
               WELLS =     1037410.1250                 WELLS =         567.8126
       RIVER LEAKAGE =      389643.2188         RIVER LEAKAGE =         237.9569
            RECHARGE =     4722864.0000              RECHARGE =        2583.0554

            TOTAL IN =     8750219.0000              TOTAL IN =        3399.9678

          OUT:                                     OUT:
          ----                                     ----
             STORAGE =           0.0000               STORAGE =           0.0000
       CONSTANT HEAD =      651856.2500         CONSTANT HEAD =         212.1905
               WELLS =           0.0000                 WELLS =           0.0000
       RIVER LEAKAGE =     8098414.0000         RIVER LEAKAGE =        3187.7986
            RECHARGE =           0.0000              RECHARGE =           0.0000

           TOTAL OUT =     8750270.0000             TOTAL OUT =        3399.9890

            IN - OUT =         -51.0000              IN - OUT =      -2.1240E-02

 PERCENT DISCREPANCY =          -0.00     PERCENT DISCREPANCY =          -0.00






         TIME SUMMARY AT END OF TIME STEP    1 IN STRESS PERIOD    3
                    SECONDS     MINUTES      HOURS       DAYS        YEARS
                    -----------------------------------------------------------
   TIME STEP LENGTH  86400.      1440.0      24.000      1.0000     2.73785E-03
 STRESS PERIOD TIME  86400.      1440.0      24.000      1.0000     2.73785E-03
         TOTAL TIME 1.57853E+08 2.63088E+06  43848.      1827.0      5.0021    
1

 Run end date and time (yyyy/mm/dd hh:mm:ss): 2016/07/14  9:32:58
 Elapsed run time:  0.020 Seconds

