                                  MODFLOW-NWT-SWR1 
      U.S. GEOLOGICAL SURVEY MODULAR FINITE-DIFFERENCE GROUNDWATER-FLOW MODEL
                            VERSION 1.0.9 07/01/2014
                    BASED ON MODFLOW-2005 VERSION 1.11.00 08/30/2013

 LIST FILE: freyberg.list
                         UNIT    2

 OPENING freyberg.dis
 FILE TYPE:DIS   UNIT   11   STATUS:OLD    
 FORMAT:FORMATTED              ACCESS:SEQUENTIAL          

 OPENING freyberg.upw
 FILE TYPE:LPF   UNIT   31   STATUS:OLD    
 FORMAT:FORMATTED              ACCESS:SEQUENTIAL          

 OPENING freyberg.bas
 FILE TYPE:BAS6   UNIT   13   STATUS:OLD    
 FORMAT:FORMATTED              ACCESS:SEQUENTIAL          

 OPENING freyberg.rch
 FILE TYPE:RCH   UNIT   19   STATUS:OLD    
 FORMAT:FORMATTED              ACCESS:SEQUENTIAL          

 OPENING freyberg.wel
 FILE TYPE:WEL   UNIT   20   STATUS:OLD    
 FORMAT:FORMATTED              ACCESS:SEQUENTIAL          

 OPENING freyberg.riv
 FILE TYPE:RIV   UNIT   18   STATUS:OLD    
 FORMAT:FORMATTED              ACCESS:SEQUENTIAL          

 OPENING freyberg.oc
 FILE TYPE:OC   UNIT   14   STATUS:OLD    
 FORMAT:FORMATTED              ACCESS:SEQUENTIAL          

 OPENING freyberg.hds
 FILE TYPE:DATA   UNIT   51   STATUS:REPLACE
 FORMAT:FORMATTED              ACCESS:SEQUENTIAL          

 OPENING freyberg.ddn
 FILE TYPE:DATA(BINARY)   UNIT   52   STATUS:REPLACE
 FORMAT:UNFORMATTED            ACCESS:STREAM              

 OPENING freyberg.cbc
 FILE TYPE:DATA(BINARY)   UNIT   53   STATUS:REPLACE
 FORMAT:UNFORMATTED            ACCESS:STREAM              

 OPENING freyberg.pcg
 FILE TYPE:PCG   UNIT   32   STATUS:OLD    
 FORMAT:FORMATTED              ACCESS:SEQUENTIAL          

 BAS -- BASIC PACKAGE, VERSION 7, 5/2/2005 INPUT READ FROM UNIT   13

 MODFLOW was compiled using mixed precision
 Precision of REAL variables:           6
 Precision of DOUBLE PRECISION variables:          15

 DISCRETIZATION INPUT DATA READ FROM UNIT   11
 # Discretization file for MODFLOW, generated by Flopy.
    1 LAYERS        40 ROWS        20 COLUMNS
    3 STRESS PERIOD(S) IN SIMULATION
 MODEL TIME UNIT IS DAYS
 MODEL LENGTH UNIT IS METERS
  Confining bed flag for each layer:
   0



                               DELR
 READING ON UNIT   11 WITH FORMAT: (20G15.6)           



                               DELC
 READING ON UNIT   11 WITH FORMAT: (40G15.6)           

 TOP ELEVATION OF LAYER 1 =   35.0000    

 OPENING FILE ON UNIT   99:
 botm.ref                                                                                                                                                                                                



             MODEL LAYER BOTTOM EL. FOR LAYER   1
 READING ON UNIT   99 WITH FORMAT: (10E12.4)           


 STRESS PERIOD     LENGTH       TIME STEPS     MULTIPLIER FOR DELT    SS FLAG
 ----------------------------------------------------------------------------
        1         1.000000          1                    1.000         SS
        2         1825.000          1                    1.000         TR
        3         1.000000          1                    1.000         SS

 COMBINED STEADY-STATE AND TRANSIENT SIMULATION




 # Basic package file for MODFLOW, generated by Flopy.                           
 THE FREE FORMAT OPTION HAS BEEN SELECTED

 OPENING FILE ON UNIT   99:
 ibound.ref                                                                                                                                                                                              



                     BOUNDARY ARRAY FOR LAYER   1
 READING ON UNIT   99 WITH FORMAT: (25I3)              

 AQUIFER HEAD WILL BE SET TO  -999.99     AT ALL NO-FLOW NODES (IBOUND=0).

 OPENING FILE ON UNIT   99:
 strt.ref                                                                                                                                                                                                



                       INITIAL HEAD FOR LAYER   1
 READING ON UNIT   99 WITH FORMAT: (10E12.4)           
 # Output control package file for MODFLOW, generated by Flopy.

 OUTPUT CONTROL IS SPECIFIED ONLY AT TIME STEPS FOR WHICH OUTPUT IS DESIRED
 HEADS WILL BE SAVED WITH FORMAT: (20E15.6)           
 COMPACT CELL-BY-CELL BUDGET FILES WILL BE WRITTEN
 AUXILIARY DATA WILL BE SAVED IN CELL-BY-CELL BUDGET FILES
 HEAD PRINT FORMAT CODE IS   0    DRAWDOWN PRINT FORMAT CODE IS   0
 HEADS WILL BE SAVED ON UNIT   51    DRAWDOWNS WILL BE SAVED ON UNIT   52

 LPF -- LAYER-PROPERTY FLOW PACKAGE, VERSION 7, 5/2/2005
         INPUT READ FROM UNIT   31
 # UPW for MODFLOW-NWT, generated by Flopy.
 CELL-BY-CELL FLOWS WILL BE SAVED ON UNIT   53
 HEAD AT CELLS THAT CONVERT TO DRY= -1.00000E+30
 No named parameters

   LAYER FLAGS:
 LAYER       LAYTYP        LAYAVG         CHANI        LAYVKA        LAYWET
 ---------------------------------------------------------------------------
    1             1             0     1.000E+00             0             0

   INTERPRETATION OF LAYER FLAGS:
                        INTERBLOCK     HORIZONTAL    DATA IN
         LAYER TYPE   TRANSMISSIVITY   ANISOTROPY   ARRAY VKA   WETTABILITY
 LAYER      (LAYTYP)      (LAYAVG)       (CHANI)      (LAYVKA)      (LAYWET)
 ---------------------------------------------------------------------------
    1   CONVERTIBLE      HARMONIC     1.000E+00    VERTICAL K  NON-WETTABLE

 WETTING CAPABILITY IS NOT ACTIVE IN ANY LAYER

 OPENING FILE ON UNIT   99:
 hk_Layer_1.ref                                                                                                                                                                                          



              HYD. COND. ALONG ROWS FOR LAYER   1
 READING ON UNIT   99 WITH FORMAT: (20G15.6)           

      VERTICAL HYD. COND. =   1.00000     FOR LAYER   1

 OPENING FILE ON UNIT   99:
 ss_Layer_1.ref                                                                                                                                                                                          



                   SPECIFIC STORAGE FOR LAYER   1
 READING ON UNIT   99 WITH FORMAT: (20G15.6)           

           SPECIFIC YIELD =  7.620930E-02 FOR LAYER   1

 WEL -- WELL PACKAGE, VERSION 1.0.6, 12/05/2012 INPUT READ FROM UNIT   20
 # Well file for MODFLOW, generated by Flopy.
 No named parameters
 MAXIMUM OF      6 ACTIVE WELLS AT ONE TIME
 No named parameters


     0 Well parameters

 RIV -- RIVER PACKAGE, VERSION 7, 5/2/2005 INPUT READ FROM UNIT   18
 # RIV for MODFLOW, generated by Flopy.
 No named parameters
 MAXIMUM OF     40 ACTIVE RIVER REACHES AT ONE TIME


     0 River parameters

 RCH -- RECHARGE PACKAGE, VERSION 7, 5/2/2005 INPUT READ FROM UNIT   19
 # RCH for MODFLOW, generated by Flopy.
 No named parameters
 OPTION 3 -- RECHARGE TO HIGHEST ACTIVE NODE IN EACH VERTICAL COLUMN


     0 Recharge parameters

 PCG -- CONJUGATE-GRADIENT SOLUTION PACKAGE, VERSION 7, 5/2/2005
 MAXIMUM OF    100 CALLS OF SOLUTION ROUTINE
 MAXIMUM OF     25 INTERNAL ITERATIONS PER CALL TO SOLUTION ROUTINE
 MATRIX PRECONDITIONING TYPE :    1
 IHCOFADD option -- When an active cell is surrounded by dry cells, convert
 the cell to dry only if storage and head-dependent boundary flow are 0.



                                    SOLUTION BY THE CONJUGATE-GRADIENT METHOD
                                   -------------------------------------------
                    MAXIMUM NUMBER OF CALLS TO PCG ROUTINE =      100
                        MAXIMUM ITERATIONS PER CALL TO PCG =       25
                               MATRIX PRECONDITIONING TYPE =        1
        RELAXATION FACTOR (ONLY USED WITH PRECOND. TYPE 1) =    0.10000E+01
 PARAMETER OF POLYNOMIAL PRECOND. = 2 (2) OR IS CALCULATED :        2
                         HEAD CHANGE CRITERION FOR CLOSURE =    0.10000E-04
                     RESIDUAL CHANGE CRITERION FOR CLOSURE =    0.10000E+00
            PCG HEAD AND RESIDUAL CHANGE PRINTOUT INTERVAL =        5
     PRINTING FROM SOLVER IS LIMITED(1) OR SUPPRESSED (>1) =        0
                            STEADY-STATE DAMPING PARAMETER =    0.70000E+00
                               TRANSIENT DAMPING PARAMETER =    0.70000E+00
1
                            STRESS PERIOD NO.    1, LENGTH =   1.000000    
                            -----------------------------------------------

                              NUMBER OF TIME STEPS =     1

                               MULTIPLIER FOR DELT =     1.000

                            INITIAL TIME STEP SIZE =   1.000000    

 WELL NO.  LAYER   ROW   COL   STRESS RATE         
 --------------------------------------------------
      1      1      9     16       96.80    
      2      1     11     13       97.70    
      3      1     20     14       94.33    
      4      1     26     10       94.90    
      5      1     29      6       96.02    
      6      1     34     12       103.6    

      6 WELLS

 REACH NO.  LAYER   ROW   COL     STAGE      CONDUCTANCE     BOTTOM EL.         
 -------------------------------------------------------------------------------
      1      1      1     15       20.10           1813.           20.00    
      2      1      2     15       19.87           5412.           19.75    
      3      1      3     15       19.65          0.1418E+05       19.50    
      4      1      4     15       19.42           5060.           19.25    
      5      1      5     15       19.19           2838.           19.00    
      6      1      6     15       18.97           3959.           18.75    
      7      1      7     15       18.74           1262.           18.50    
      8      1      8     15       18.51           5652.           18.25    
      9      1      9     15       18.28           3966.           18.00    
     10      1     10     15       19.06           6277.           17.75    
     11      1     11     15       17.83           6347.           17.50    
     12      1     12     15       17.60           1531.           17.25    
     13      1     13     15       17.38           1074.           17.00    
     14      1     14     15       17.15           3416.           16.75    
     15      1     15     15       16.92          0.3285E+05       16.50    
     16      1     16     15       16.70          0.1024E+05       16.25    
     17      1     17     15       16.47           813.8           16.00    
     18      1     18     15       16.24           8532.           15.75    
     19      1     19     15       16.02           1492.           15.50    
     20      1     20     15       15.79           4143.           15.25    
     21      1     21     15       15.56           2232.           15.00    
     22      1     22     15       15.33           1875.           14.75    
     23      1     23     15       15.11           4075.           14.50    
     24      1     24     15       14.88          0.3736E+05       14.25    
     25      1     25     15       14.65           9804.           14.00    
     26      1     26     15       14.43           6244.           13.75    
     27      1     27     15       14.20           4353.           13.50    
     28      1     28     15       13.97          0.7001E+05       13.25    
     29      1     29     15       13.75          0.1839E+05       13.00    
     30      1     30     15       13.52           6409.           12.75    
     31      1     31     15       13.29           4467.           12.50    
     32      1     32     15       13.07          0.3564E+05       12.25    
     33      1     33     15       12.84           1259.           12.00    
     34      1     34     15       12.61           3603.           11.75    
     35      1     35     15       12.38           5197.           11.50    
     36      1     36     15       12.16           1415.           11.25    
     37      1     37     15       11.93          0.1171E+05       11.00    
     38      1     38     15       11.70          0.2597E+05       10.75    
     39      1     39     15       11.48           7048.           10.50    
     40      1     40     15       11.25           3259.           10.25    

     40 RIVER REACHES

 OPENING FILE ON UNIT   99:
 rech_0.ref                                                                                                                                                                                              



                           RECHARGE
 READING ON UNIT   99 WITH FORMAT: (20G15.6)           

 SOLVING FOR HEAD 


    16 CALLS TO PCG ROUTINE FOR TIME STEP   1 IN STRESS PERIOD    1
   248 TOTAL ITERATIONS

 MAXIMUM HEAD CHANGE FOR EACH ITERATION (1 INDICATES THE FIRST INNER ITERATION):

    HEAD CHANGE    HEAD CHANGE    HEAD CHANGE    HEAD CHANGE    HEAD CHANGE 
   LAYER,ROW,COL  LAYER,ROW,COL  LAYER,ROW,COL  LAYER,ROW,COL  LAYER,ROW,COL
 ---------------------------------------------------------------------------
  1  -89.66      0  -91.78      0   49.29      0   8.657      0  -7.468    
   (  1, 39, 14)  (  1,  9,  4)  (  1, 39, 14)  (  1,  5, 10)  (  1, 28,  4)
  0   7.052      0  -2.577      0   1.632      0  -1.517      0  0.7437    
   (  1, 28,  4)  (  1, 28,  4)  (  1,  8,  5)  (  1, 20,  4)  (  1, 12,  2)
  0 -0.8165      0 -0.3186      0 -0.1505      0 -0.8118E-01  0 -0.4797E-01
   (  1,  9,  4)  (  1, 32,  5)  (  1, 32, 10)  (  1, 33,  2)  (  1, 30,  3)
  0 -0.1285E-01  0 -0.1619E-01  0  0.2252E-01  0 -0.1425E-01  0  0.4751E-02
   (  1,  5, 10)  (  1,  9,  4)  (  1,  9,  4)  (  1, 19,  4)  (  1, 14,  1)
  0  0.2165E-02  0 -0.1220E-02  0  0.5853E-03  0 -0.3336E-03  0  0.3574E-03
   (  1, 33,  2)  (  1,  6,  2)  (  1,  8,  4)  (  1, 28,  4)  (  1, 28,  4)
  1   39.59      0  -37.50      0   8.276      0   3.648      0   2.932    
   (  1,  9,  4)  (  1,  9,  4)  (  1, 39, 14)  (  1, 39, 14)  (  1,  8,  5)
  0   1.361      0  -1.104      0  0.4830      0 -0.3323      0 -0.1937    
   (  1, 28,  4)  (  1, 32, 10)  (  1, 36, 13)  (  1, 29,  3)  (  1,  9,  4)
  0  0.1526      0 -0.8932E-01  0 -0.4775E-01  0  0.1861E-01  0  0.1045E-01
   (  1,  9,  4)  (  1,  9,  4)  (  1, 20,  4)  (  1, 38, 14)  (  1,  5, 10)
  0 -0.1106E-01  0 -0.9672E-02  0  0.4178E-02  0 -0.4482E-02  0  0.1389E-02
   (  1, 33,  2)  (  1, 30,  3)  (  1,  9,  4)  (  1,  9,  4)  (  1, 30,  3)
  0  0.6499E-03  0 -0.2688E-03  0  0.1281E-03  0  0.7778E-04  0  0.8675E-04
   (  1, 11, 12)  (  1, 11, 12)  (  1,  8,  4)  (  1,  5, 10)  (  1, 21,  4)
  1   25.13      0  -19.78      0  -3.125      0  -1.271      0   1.380    
   (  1,  9,  4)  (  1,  9,  4)  (  1,  8,  5)  (  1,  8,  5)  (  1, 39, 14)
  0 -0.8902      0 -0.5150      0 -0.2049      0  0.1278      0 -0.6284E-01
   (  1, 28,  4)  (  1, 33,  2)  (  1, 26,  5)  (  1, 32, 10)  (  1, 32, 10)
  0 -0.5580E-01  0 -0.3912E-01  0 -0.2243E-01  0 -0.6865E-02  0 -0.7670E-02
   (  1,  9,  4)  (  1, 32,  5)  (  1, 32,  5)  (  1,  5, 10)  (  1, 28,  4)
  0 -0.5772E-02  0  0.2493E-02  0 -0.1765E-02  0 -0.9825E-03  0 -0.7079E-03
   (  1, 33,  2)  (  1, 38, 13)  (  1, 32,  5)  (  1,  9,  4)  (  1,  6,  8)
  0  0.2137E-03  0  0.1024E-03  0 -0.4942E-04  0  0.6234E-04  0  0.4476E-04
   (  1, 36, 13)  (  1, 32, 10)  (  1,  5, 10)  (  1, 30, 11)  (  1, 30,  6)
  1   2.039      0   2.177      0  -1.115      0 -0.5180      0 -0.4346    
   (  1, 30,  7)  (  1,  9,  4)  (  1,  9,  4)  (  1, 32, 10)  (  1, 28, 11)
  0 -0.3336      0 -0.1917      0 -0.9465E-01  0 -0.5018E-01  0 -0.1847E-01
   (  1, 28,  4)  (  1, 33,  2)  (  1, 34,  9)  (  1, 20,  4)  (  1,  9,  4)
  0  0.1591E-01  0 -0.1766E-01  0  0.7826E-02  0 -0.2980E-02  0 -0.2069E-02
   (  1, 10,  1)  (  1,  9,  4)  (  1,  9,  4)  (  1, 28,  4)  (  1,  5, 10)
  0 -0.2009E-02  0 -0.1055E-02  0 -0.6687E-03  0 -0.3293E-03  0 -0.3005E-03
   (  1, 33,  2)  (  1, 11, 12)  (  1, 32,  5)  (  1,  9,  4)  (  1, 32, 10)
  0 -0.1063E-03  0  0.6301E-04  0 -0.3035E-04  0  0.1456E-04  0  0.2057E-04
   (  1, 35,  4)  (  1, 11, 12)  (  1, 29,  4)  (  1, 28,  3)  (  1, 28,  4)
  1  -2.213      0   2.426      0 -0.2285      0 -0.1505      0 -0.1556    
   (  1,  9,  4)  (  1,  9,  4)  (  1,  5, 10)  (  1, 32, 10)  (  1,  8,  5)
  0 -0.8888E-01  0 -0.3474E-01  0 -0.4436E-01  0  0.1120E-01  0 -0.9740E-02
   (  1, 28,  1)  (  1, 33,  2)  (  1, 33,  9)  (  1, 32, 10)  (  1, 32, 10)
  0  0.5273E-02  0 -0.3602E-02  0  0.2930E-02  0 -0.1453E-02  0 -0.6616E-03
   (  1, 12,  1)  (  1,  9,  4)  (  1,  9,  4)  (  1,  9,  4)  (  1,  5, 10)
  0 -0.6503E-03  0 -0.3317E-03  0 -0.2321E-03  0 -0.1293E-03  0  0.5912E-04
   (  1, 31,  8)  (  1, 33,  2)  (  1, 32,  5)  (  1, 32, 10)  (  1,  9,  3)
  0 -0.4369E-04  0  0.2482E-04  0  0.8695E-05  1 -0.8301      0  0.8045    
   (  1, 35,  4)  (  1, 31,  2)  (  1,  5, 11)  (  1,  9,  4)  (  1,  9,  4)
  0  0.1010      0 -0.3075E-01  0 -0.5134E-01  0 -0.3030E-01  0 -0.1888E-01
   (  1,  8,  5)  (  1,  3, 11)  (  1, 28,  4)  (  1,  8,  5)  (  1, 28,  1)
  0 -0.9916E-02  0 -0.6820E-02  0  0.3952E-02  0 -0.3050E-02  0 -0.1434E-02
   (  1, 31,  1)  (  1, 32, 10)  (  1, 13,  3)  (  1,  9,  4)  (  1, 34,  9)
  0 -0.9415E-03  0 -0.4241E-03  0  0.1034E-03  0 -0.1265E-03  0  0.8114E-04
   (  1, 32,  4)  (  1, 21,  4)  (  1,  5, 10)  (  1, 14, 11)  (  1,  9,  4)
  0  0.7166E-04  0 -0.8867E-04  0 -0.3413E-04  0 -0.1484E-04  0  0.8414E-05
   (  1,  9,  4)  (  1,  7,  1)  (  1, 32, 10)  (  1, 34,  9)  (  1, 31,  2)
  1 -0.2021      0  0.1834      0  0.4159E-01  0 -0.2262E-01  0 -0.8587E-02
   (  1,  9,  4)  (  1,  9,  4)  (  1, 28,  4)  (  1, 28,  4)  (  1,  5, 10)
  0 -0.9889E-02  0 -0.5555E-02  0 -0.3065E-02  0 -0.2294E-02  0 -0.1421E-02
   (  1,  8,  5)  (  1, 28,  1)  (  1, 31,  1)  (  1, 32, 10)  (  1,  9,  4)
  0  0.1040E-02  0  0.4842E-03  0 -0.2970E-03  0  0.1201E-03  0 -0.3746E-04
   (  1,  9,  4)  (  1,  9,  4)  (  1, 32,  4)  (  1, 15, 11)  (  1, 31,  7)
  0 -0.4690E-04  0  0.4151E-04  0 -0.3205E-04  0  0.2725E-04  0  0.1203E-04
   (  1,  5, 10)  (  1, 22,  4)  (  1, 12,  2)  (  1,  9,  4)  (  1, 11, 12)
  0 -0.4384E-05  1  0.1763E-01  0  0.2142E-01  0 -0.1147E-01  0 -0.6254E-02
   (  1,  6,  9)  (  1, 23, 13)  (  1,  9,  4)  (  1,  9,  4)  (  1,  5, 10)
  0 -0.5862E-02  0 -0.4533E-02  0 -0.1656E-02  0 -0.9889E-03  0 -0.6859E-03
   (  1, 28,  4)  (  1,  8,  5)  (  1, 30,  1)  (  1, 19,  4)  (  1, 32, 10)
  0 -0.3672E-03  0 -0.2110E-03  0  0.3252E-03  0 -0.8641E-04  0 -0.5376E-04
   (  1, 11, 12)  (  1, 18,  4)  (  1,  9,  4)  (  1, 32,  4)  (  1, 11, 12)
  0  0.1738E-04  0 -0.1199E-04  0  0.1218E-04  0  0.7999E-05  1  0.1150E-01
   (  1, 31,  3)  (  1,  5, 10)  (  1, 22,  4)  (  1,  9,  4)  (  1, 10,  4)
  0 -0.1468E-01  0  0.3774E-02  0 -0.2231E-02  0 -0.2256E-02  0 -0.1378E-02
   (  1,  9,  4)  (  1, 28,  4)  (  1,  5, 10)  (  1, 28,  4)  (  1,  8,  5)
  0 -0.5411E-03  0 -0.3269E-03  0 -0.1743E-03  0 -0.1124E-03  0 -0.9255E-04
   (  1, 31,  2)  (  1, 19,  4)  (  1, 21,  3)  (  1, 11, 12)  (  1,  9,  4)
  0  0.7073E-04  0 -0.2388E-04  0 -0.1590E-04  0  0.4460E-05  1  0.6112E-02
   (  1,  9,  4)  (  1, 32,  4)  (  1, 11, 12)  (  1,  5, 10)  (  1,  9,  4)
  0 -0.6659E-02  0  0.7808E-03  0 -0.6769E-03  0 -0.7705E-03  0 -0.3855E-03
   (  1,  9,  4)  (  1, 31,  8)  (  1,  5, 10)  (  1, 28,  4)  (  1,  6,  4)
  0 -0.1749E-03  0 -0.8508E-04  0  0.4597E-04  0  0.4421E-04  0 -0.3965E-04
   (  1, 31,  2)  (  1,  8,  5)  (  1,  8,  5)  (  1,  9,  4)  (  1, 18,  4)
  0  0.1570E-04  0 -0.8890E-05  1  0.2133E-02  0 -0.2180E-02  0  0.2119E-03
   (  1,  9,  4)  (  1,  9,  4)  (  1,  9,  4)  (  1,  9,  4)  (  1,  5, 10)
  0  0.2330E-03  0 -0.2484E-03  0 -0.1316E-03  0 -0.5105E-04  0 -0.2711E-04
   (  1, 32,  9)  (  1, 28,  4)  (  1, 11, 12)  (  1, 31,  2)  (  1, 32, 10)
  0 -0.1507E-04  0  0.1274E-04  0  0.7731E-05  1  0.6432E-03  0 -0.6414E-03
   (  1, 11, 12)  (  1,  9,  4)  (  1,  8,  5)  (  1,  9,  4)  (  1,  9,  4)
  0  0.6642E-04  0  0.5967E-04  0 -0.7594E-04  0 -0.3886E-04  0  0.1723E-04
   (  1,  5, 10)  (  1, 32,  9)  (  1, 28,  4)  (  1, 11, 12)  (  1, 20,  4)
  0 -0.1139E-04  0 -0.5587E-05  1  0.1758E-03  0 -0.1646E-03  0  0.2171E-04
   (  1,  8,  5)  (  1, 32, 10)  (  1,  9,  4)  (  1,  9,  4)  (  1,  5, 10)
  0 -0.1992E-04  0 -0.1901E-04  0 -0.1101E-04  0 -0.5374E-05  1  0.3712E-04
   (  1, 21,  3)  (  1,  8,  5)  (  1,  6,  9)  (  1, 32, 10)  (  1,  9,  4)
  0 -0.3560E-04  0  0.1388E-04  0 -0.8737E-05  1  0.1018E-04  0 -0.1001E-04
   (  1,  9,  4)  (  1, 18,  4)  (  1, 32, 10)  (  1, 28,  4)  (  1,  5, 10)
  0 -0.1734E-04  0  0.8423E-05  1  0.7248E-05
   (  1,  9,  4)  (  1,  9,  3)  (  1, 28,  4)

 MAXIMUM RESIDUAL FOR EACH ITERATION (1 INDICATES THE FIRST INNER ITERATION):

    RESIDUAL       RESIDUAL       RESIDUAL       RESIDUAL       RESIDUAL    
   LAYER,ROW,COL  LAYER,ROW,COL  LAYER,ROW,COL  LAYER,ROW,COL  LAYER,ROW,COL
 ---------------------------------------------------------------------------
  1  0.4633E+05  0  0.2681E+05  0   7819.      0   5337.      0   3142.    
   (  1, 28, 15)  (  1, 28, 15)  (  1, 28, 15)  (  1,  5, 10)  (  1, 28, 15)
  0  -1431.      0   685.1      0   422.1      0  -232.7      0  -201.4    
   (  1, 39, 11)  (  1, 39, 14)  (  1, 39, 14)  (  1, 38, 14)  (  1, 38, 14)
  0  -162.3      0  -103.6      0  -73.28      0  -39.61      0  -24.72    
   (  1, 38, 14)  (  1, 38, 15)  (  1, 38, 15)  (  1, 38, 15)  (  1, 38, 15)
  0  -19.86      0  -11.67      0  -7.770      0  -5.726      0  -3.356    
   (  1, 38, 15)  (  1, 38, 15)  (  1, 38, 15)  (  1, 38, 15)  (  1, 38, 15)
  0  -1.771      0  -1.104      0 -0.5589      0 -0.3651      0 -0.2273    
   (  1, 38, 15)  (  1, 38, 15)  (  1, 38, 15)  (  1, 38, 15)  (  1, 38, 15)
  1  0.1400E+05  0   4362.      0  -2903.      0   1149.      0  -636.0    
   (  1, 28, 15)  (  1, 28, 15)  (  1,  5, 10)  (  1, 28, 15)  (  1, 39, 11)
  0  -311.4      0  -156.3      0   97.12      0  -56.08      0  -35.45    
   (  1, 39, 11)  (  1, 39, 11)  (  1, 39, 14)  (  1, 38, 15)  (  1, 38, 14)
  0  -33.20      0  -23.01      0  -15.24      0  -9.442      0  -7.853    
   (  1, 38, 14)  (  1, 38, 15)  (  1, 38, 15)  (  1,  5, 10)  (  1, 38, 15)
  0  -5.513      0  -2.919      0  -1.653      0  -1.269      0 -0.7470    
   (  1, 38, 15)  (  1, 38, 15)  (  1, 38, 15)  (  1, 38, 15)  (  1, 38, 15)
  0 -0.4184      0 -0.2589      0 -0.1434      0 -0.1231      0 -0.6768E-01
   (  1, 38, 15)  (  1, 38, 15)  (  1, 38, 15)  (  1, 38, 15)  (  1, 38, 15)
  1  0.1045E+05  0   1683.      0  -801.6      0   492.4      0   226.8    
   (  1, 28, 15)  (  1, 28, 15)  (  1,  5, 10)  (  1, 28, 15)  (  1, 28, 15)
  0   121.7      0   52.16      0   29.67      0   16.89      0   9.407    
   (  1, 28, 15)  (  1, 28, 15)  (  1, 28, 15)  (  1, 28, 15)  (  1, 28, 15)
  0   8.614      0  -5.171      0  -3.342      0  -2.939      0  -1.962    
   (  1, 28, 15)  (  1, 38, 15)  (  1, 38, 15)  (  1, 38, 15)  (  1, 38, 15)
  0  -1.152      0 -0.7712      0 -0.4035      0 -0.3702      0 -0.2013    
   (  1, 38, 15)  (  1, 38, 15)  (  1, 38, 15)  (  1, 38, 15)  (  1, 38, 15)
  0 -0.1191      0 -0.7064E-01  0 -0.6350E-01  0 -0.3328E-01  0 -0.2179E-01
   (  1, 38, 15)  (  1, 38, 15)  (  1, 38, 15)  (  1, 38, 15)  (  1, 38, 15)
  1   1105.      0   596.2      0   337.4      0   194.7      0   93.88    
   (  1, 28, 15)  (  1, 28, 15)  (  1, 28, 15)  (  1, 28, 15)  (  1, 28, 15)
  0   46.93      0   19.36      0   9.308      0   4.575      0   3.146    
   (  1, 28, 15)  (  1, 28, 15)  (  1, 28, 15)  (  1, 28, 15)  (  1, 28, 15)
  0   2.820      0   1.687      0   1.009      0   1.350      0  0.5649    
   (  1, 28, 15)  (  1, 28, 15)  (  1, 28, 15)  (  1,  5, 10)  (  1, 28, 15)
  0 -0.3152      0 -0.2107      0 -0.1246      0 -0.1132      0 -0.6239E-01
   (  1, 38, 15)  (  1, 38, 15)  (  1, 38, 15)  (  1, 38, 15)  (  1, 38, 15)
  0 -0.3476E-01  0 -0.2248E-01  0 -0.1644E-01  0 -0.1238E-01  0 -0.9276E-02
   (  1, 38, 15)  (  1, 38, 15)  (  1, 38, 15)  (  1, 38, 15)  (  1, 38, 15)
  1   2007.      0   225.3      0   139.0      0   70.64      0   32.73    
   (  1, 28, 15)  (  1, 28, 15)  (  1, 28, 15)  (  1, 28, 15)  (  1, 28, 15)
  0   13.86      0   7.432      0   3.668      0   1.843      0   1.080    
   (  1, 28, 15)  (  1, 28, 15)  (  1, 28, 15)  (  1, 28, 15)  (  1, 28, 15)
  0  0.6212      0  0.5586      0  0.3121      0  0.4012      0  0.1731    
   (  1, 28, 15)  (  1, 28, 15)  (  1, 28, 15)  (  1,  5, 10)  (  1, 28, 15)
  0 -0.1038      0 -0.6138E-01  0 -0.3610E-01  0 -0.2125E-01  0 -0.1988E-01
   (  1, 38, 15)  (  1, 38, 15)  (  1, 38, 15)  (  1, 38, 15)  (  1, 38, 15)
  0 -0.1175E-01  0 -0.6965E-02  0 -0.3985E-02  1   797.4      0   102.0    
   (  1, 38, 15)  (  1, 38, 15)  (  1, 38, 15)  (  1, 28, 15)  (  1, 28, 15)
  0   49.79      0   31.86      0   13.32      0   6.384      0   3.117    
   (  1, 28, 15)  (  1, 28, 15)  (  1, 28, 15)  (  1, 28, 15)  (  1, 28, 15)
  0   1.345      0  0.6837      0  0.5646      0  0.3333      0  0.1781    
   (  1, 28, 15)  (  1, 28, 15)  (  1, 28, 15)  (  1, 28, 15)  (  1, 28, 15)
  0  0.8805E-01  0  0.4869E-01  0  0.7262E-01  0 -0.2986E-01  0 -0.1859E-01
   (  1, 28, 15)  (  1, 28, 15)  (  1,  5, 10)  (  1, 38, 15)  (  1, 38, 15)
  0 -0.1662E-01  0 -0.1001E-01  0 -0.5998E-02  0 -0.3671E-02  0 -0.2199E-02
   (  1, 38, 15)  (  1, 38, 15)  (  1, 38, 15)  (  1, 38, 15)  (  1, 38, 15)
  1   148.7      0   43.00      0   18.04      0   6.857      0   4.870    
   (  1, 28, 15)  (  1, 28, 15)  (  1, 28, 15)  (  1, 28, 15)  (  1, 28, 15)
  0   2.763      0   1.184      0  0.5567      0  0.2526      0  0.1403    
   (  1, 28, 15)  (  1, 28, 15)  (  1, 28, 15)  (  1, 28, 15)  (  1, 28, 15)
  0  0.1117      0  0.6016E-01  0  0.3143E-01  0  0.1734E-01  0  0.3335E-01
   (  1, 28, 15)  (  1, 28, 15)  (  1, 28, 15)  (  1, 28, 15)  (  1,  5, 10)
  0 -0.1035E-01  0 -0.6203E-02  0 -0.4131E-02  0 -0.3212E-02  0 -0.1874E-02
   (  1, 38, 15)  (  1, 38, 15)  (  1, 38, 15)  (  1, 38, 15)  (  1, 38, 15)
  0 -0.1104E-02  1   19.95      0   10.75      0   6.932      0   4.695    
   (  1, 38, 15)  (  1, 28, 15)  (  1, 28, 15)  (  1, 28, 15)  (  1, 28, 15)
  0   2.053      0   1.003      0  0.4146      0  0.1936      0  0.8870E-01
   (  1, 28, 15)  (  1, 28, 15)  (  1, 28, 15)  (  1, 28, 15)  (  1, 28, 15)
  0  0.4126E-01  0  0.3511E-01  0  0.2027E-01  0  0.1030E-01  0  0.5377E-02
   (  1, 28, 15)  (  1, 28, 15)  (  1, 28, 15)  (  1, 28, 15)  (  1, 28, 15)
  0  0.8374E-02  0 -0.3104E-02  0 -0.1852E-02  0 -0.1056E-02  1   13.17    
   (  1,  5, 10)  (  1, 38, 15)  (  1, 38, 15)  (  1, 38, 15)  (  1, 28, 15)
  0   5.132      0   2.721      0   1.768      0  0.7257      0  0.3342    
   (  1, 28, 15)  (  1, 28, 15)  (  1, 28, 15)  (  1, 28, 15)  (  1, 28, 15)
  0  0.1364      0  0.5918E-01  0  0.2959E-01  0  0.1512E-01  0  0.1275E-01
   (  1, 28, 15)  (  1, 28, 15)  (  1, 28, 15)  (  1, 28, 15)  (  1, 28, 15)
  0  0.6691E-02  0  0.3330E-02  0  0.1957E-02  0  0.2504E-02  1   7.623    
   (  1, 28, 15)  (  1, 28, 15)  (  1,  4, 11)  (  1,  5, 10)  (  1, 28, 15)
  0   1.593      0  0.9938      0  0.5867      0  0.2432      0  0.1044    
   (  1, 28, 15)  (  1, 28, 15)  (  1, 28, 15)  (  1, 28, 15)  (  1, 28, 15)
  0  0.4352E-01  0  0.1652E-01  0  0.8300E-02  0  0.5866E-02  0  0.4040E-02
   (  1, 28, 15)  (  1, 28, 15)  (  1, 28, 15)  (  1, 28, 15)  (  1, 28, 15)
  0  0.2137E-02  0  0.1207E-02  1   2.864      0  0.4892      0  0.3361    
   (  1, 28, 15)  (  1,  5, 10)  (  1, 28, 15)  (  1, 28, 15)  (  1, 28, 15)
  0  0.1809      0  0.7898E-01  0  0.3085E-01  0  0.1376E-01  0  0.4971E-02
   (  1, 28, 15)  (  1, 28, 15)  (  1, 28, 15)  (  1, 28, 15)  (  1, 28, 15)
  0  0.2100E-02  0  0.1693E-02  0  0.1174E-02  1  0.8395      0  0.1512    
   (  1, 28, 15)  (  1, 28, 15)  (  1, 28, 15)  (  1, 28, 15)  (  1, 28, 15)
  0  0.1089      0  0.5240E-01  0  0.2488E-01  0  0.8798E-02  0  0.4176E-02
   (  1, 28, 15)  (  1, 28, 15)  (  1, 28, 15)  (  1, 28, 15)  (  1, 28, 15)
  0  0.1698E-02  0  0.8878E-03  1  0.1963      0  0.5366E-01  0  0.3769E-01
   (  1, 28, 15)  (  1, 28, 15)  (  1, 28, 15)  (  1, 28, 15)  (  1, 28, 15)
  0  0.1937E-01  0  0.8111E-02  0  0.2153E-02  0  0.1153E-02  1  0.5210E-01
   (  1, 28, 15)  (  1, 28, 15)  (  1, 28, 15)  (  1, 28, 15)  (  1, 28, 15)
  0  0.2728E-01  0  0.1480E-01  0  0.9052E-02  1  0.6289E-01  0  0.3996E-01
   (  1, 28, 15)  (  1, 28, 15)  (  1, 28, 15)  (  1, 28, 15)  (  1, 28, 15)
  0  0.1978E-01  0  0.1136E-01  1  0.2663E-01
   (  1, 28, 15)  (  1, 28, 15)  (  1, 28, 15)



 OUTPUT CONTROL FOR STRESS PERIOD    1   TIME STEP    1
    SAVE HEAD FOR ALL LAYERS
    SAVE BUDGET
 UBDSV2 SAVING "   CONSTANT HEAD" ON UNIT  53 AT TIME STEP  1, STRESS PERIOD   1
 UBDSV1 SAVING "FLOW RIGHT FACE " ON UNIT  53 AT TIME STEP  1, STRESS PERIOD   1
 UBDSV1 SAVING "FLOW FRONT FACE " ON UNIT  53 AT TIME STEP  1, STRESS PERIOD   1

 HEAD WILL BE SAVED ON UNIT   51 AT END OF TIME STEP    1, STRESS PERIOD    1
1
  VOLUMETRIC BUDGET FOR ENTIRE MODEL AT END OF TIME STEP    1, STRESS PERIOD   1
  ------------------------------------------------------------------------------

     CUMULATIVE VOLUMES      L**3       RATES FOR THIS TIME STEP      L**3/T
     ------------------                 ------------------------

           IN:                                      IN:
           ---                                      ---
             STORAGE =           0.0000               STORAGE =           0.0000
       CONSTANT HEAD =           0.0000         CONSTANT HEAD =           0.0000
               WELLS =         583.3990                 WELLS =         583.3990
       RIVER LEAKAGE =          69.1915         RIVER LEAKAGE =          69.1915
            RECHARGE =        6060.1821              RECHARGE =        6060.1821

            TOTAL IN =        6712.7725              TOTAL IN =        6712.7725

          OUT:                                     OUT:
          ----                                     ----
             STORAGE =           0.0000               STORAGE =           0.0000
       CONSTANT HEAD =         547.4482         CONSTANT HEAD =         547.4482
               WELLS =           0.0000                 WELLS =           0.0000
       RIVER LEAKAGE =        6165.5347         RIVER LEAKAGE =        6165.5347
            RECHARGE =           0.0000              RECHARGE =           0.0000

           TOTAL OUT =        6712.9829             TOTAL OUT =        6712.9829

            IN - OUT =          -0.2104              IN - OUT =          -0.2104

 PERCENT DISCREPANCY =          -0.00     PERCENT DISCREPANCY =          -0.00






         TIME SUMMARY AT END OF TIME STEP    1 IN STRESS PERIOD    1
                    SECONDS     MINUTES      HOURS       DAYS        YEARS
                    -----------------------------------------------------------
   TIME STEP LENGTH  86400.      1440.0      24.000      1.0000     2.73785E-03
 STRESS PERIOD TIME  86400.      1440.0      24.000      1.0000     2.73785E-03
         TOTAL TIME  86400.      1440.0      24.000      1.0000     2.73785E-03
1
1
                            STRESS PERIOD NO.    2, LENGTH =   1825.000    
                            -----------------------------------------------

                              NUMBER OF TIME STEPS =     1

                               MULTIPLIER FOR DELT =     1.000

                            INITIAL TIME STEP SIZE =   1825.000    

 WELL NO.  LAYER   ROW   COL   STRESS RATE         
 --------------------------------------------------
      1      1      9     16       87.67    
      2      1     11     13       180.7    
      3      1     20     14       83.31    
      4      1     26     10       111.7    
      5      1     29      6       99.87    
      6      1     34     12       107.7    

      6 WELLS

 REUSING NON-PARAMETER RIVER REACHES FROM LAST STRESS PERIOD

     40 RIVER REACHES

 OPENING FILE ON UNIT   99:
 rech_1.ref                                                                                                                                                                                              



                           RECHARGE
 READING ON UNIT   99 WITH FORMAT: (20G15.6)           

 SOLVING FOR HEAD 


    11 CALLS TO PCG ROUTINE FOR TIME STEP   1 IN STRESS PERIOD    2
    95 TOTAL ITERATIONS

 MAXIMUM HEAD CHANGE FOR EACH ITERATION (1 INDICATES THE FIRST INNER ITERATION):

    HEAD CHANGE    HEAD CHANGE    HEAD CHANGE    HEAD CHANGE    HEAD CHANGE 
   LAYER,ROW,COL  LAYER,ROW,COL  LAYER,ROW,COL  LAYER,ROW,COL  LAYER,ROW,COL
 ---------------------------------------------------------------------------
  1  -2.111      0  0.2053      0 -0.2974      0 -0.1297      0 -0.6523E-01
   (  1, 14,  3)  (  1,  5, 10)  (  1, 21,  3)  (  1,  1,  6)  (  1, 21,  3)
  0 -0.3091E-01  0  0.1141E-01  0  0.4333E-02  0 -0.1790E-02  0 -0.8728E-03
   (  1, 28,  4)  (  1, 28,  4)  (  1, 13,  9)  (  1,  6,  1)  (  1, 36, 13)
  0  0.3035E-03  0  0.2985E-03  0 -0.1767E-03  0 -0.6740E-04  0 -0.3537E-04
   (  1,  5, 10)  (  1,  9,  4)  (  1,  9,  3)  (  1,  8,  5)  (  1,  9,  4)
  0 -0.1212E-04  0  0.5495E-05  1 -0.2581      0  0.5300E-01  0 -0.8940E-01
   (  1,  6,  4)  (  1, 39, 14)  (  1,  5, 10)  (  1,  5, 10)  (  1, 10,  1)
  0 -0.5997E-01  0 -0.1929E-01  0  0.7689E-02  0 -0.3601E-02  0  0.1092E-02
   (  1, 21,  3)  (  1, 28,  4)  (  1, 28,  4)  (  1, 28,  4)  (  1, 17,  9)
  0  0.4784E-03  0  0.3327E-03  0 -0.1029E-03  0  0.5278E-04  0 -0.3975E-04
   (  1, 12,  9)  (  1,  9,  4)  (  1,  7,  1)  (  1,  5, 10)  (  1,  4,  2)
  0 -0.1532E-04  0  0.5672E-05  1 -0.7686E-01  0  0.1507E-01  0 -0.1825E-01
   (  1,  2,  6)  (  1, 31,  3)  (  1,  5, 10)  (  1,  5, 10)  (  1, 10,  1)
  0 -0.1408E-01  0 -0.5557E-02  0  0.2006E-02  0 -0.9950E-03  0 -0.2924E-03
   (  1, 21,  3)  (  1, 28,  4)  (  1, 28,  4)  (  1, 28,  4)  (  1,  7,  4)
  0 -0.1657E-03  0  0.1073E-03  0 -0.2894E-04  0  0.1332E-04  0 -0.1058E-04
   (  1,  9,  3)  (  1,  9,  4)  (  1,  7,  1)  (  1,  5, 10)  (  1,  4,  2)
  0  0.3513E-05  1  0.2145E-01  0  0.4561E-02  0 -0.3194E-02  0 -0.2933E-02
   (  1, 11, 12)  (  1, 14,  3)  (  1,  5, 10)  (  1,  5, 10)  (  1,  6,  1)
  0 -0.1348E-02  0  0.5190E-03  0 -0.2982E-03  0 -0.8925E-04  0 -0.5106E-04
   (  1, 28,  4)  (  1, 28,  4)  (  1, 28,  4)  (  1,  6,  4)  (  1,  9,  3)
  0  0.2410E-04  0  0.9029E-05  1  0.6030E-02  0 -0.1365E-02  0  0.1253E-02
   (  1,  9,  4)  (  1,  5, 10)  (  1, 14,  3)  (  1, 11, 12)  (  1,  5, 10)
  0 -0.8990E-03  0 -0.3334E-03  0  0.1099E-03  0 -0.8349E-04  0  0.3382E-04
   (  1,  9,  3)  (  1,  8,  5)  (  1, 28,  4)  (  1, 28,  4)  (  1, 28,  4)
  0 -0.1194E-04  0  0.5039E-05  1 -0.1635E-02  0 -0.4703E-03  0 -0.5536E-03
   (  1,  9,  3)  (  1,  9,  4)  (  1,  5, 14)  (  1,  5, 10)  (  1, 11, 12)
  0 -0.2738E-03  0 -0.9558E-04  0  0.4348E-04  0  0.2161E-04  0  0.7681E-05
   (  1,  9,  3)  (  1,  8,  5)  (  1,  7,  5)  (  1, 11, 12)  (  1, 14,  1)
  1 -0.4753E-03  0 -0.1826E-03  0 -0.1830E-03  0 -0.7566E-04  0  0.3272E-04
   (  1,  5, 14)  (  1,  5, 10)  (  1, 11, 12)  (  1,  9,  3)  (  1,  6,  9)
  0  0.1270E-04  0  0.5990E-05  1 -0.1332E-03  0 -0.6494E-04  0 -0.5477E-04
   (  1,  7,  4)  (  1, 11, 12)  (  1,  5, 14)  (  1,  5, 10)  (  1, 11, 12)
  0  0.1995E-04  0  0.1088E-04  0 -0.3917E-05  1 -0.3751E-04  0 -0.2075E-04
   (  1,  5, 14)  (  1,  6,  9)  (  1, 28,  4)  (  1,  5, 14)  (  1,  5, 10)
  0 -0.1749E-04  0  0.6772E-05  1  0.1055E-04  0 -0.6084E-05  1  0.4218E-05
   (  1, 11, 12)  (  1,  5, 14)  (  1,  6,  9)  (  1,  5, 10)  (  1,  5, 10)

 MAXIMUM RESIDUAL FOR EACH ITERATION (1 INDICATES THE FIRST INNER ITERATION):

    RESIDUAL       RESIDUAL       RESIDUAL       RESIDUAL       RESIDUAL    
   LAYER,ROW,COL  LAYER,ROW,COL  LAYER,ROW,COL  LAYER,ROW,COL  LAYER,ROW,COL
 ---------------------------------------------------------------------------
  1   173.4      0   96.47      0  -21.63      0   8.210      0   5.324    
   (  1,  4, 11)  (  1,  5, 10)  (  1, 21,  3)  (  1, 21,  3)  (  1, 30, 13)
  0   1.655      0  0.7936      0  0.3190      0  0.2178      0 -0.2649    
   (  1,  2, 15)  (  1,  2, 15)  (  1,  1, 15)  (  1, 35, 13)  (  1,  5, 10)
  0 -0.1359      0  0.3228E-01  0  0.1840E-01  0  0.9587E-02  0  0.5164E-02
   (  1,  4, 11)  (  1,  4, 10)  (  1,  4, 10)  (  1,  4, 10)  (  1,  4, 10)
  0  0.1743E-02  0  0.5612E-03  1  -41.58      0   27.02      0   7.654    
   (  1,  4, 10)  (  1,  4, 10)  (  1,  5, 10)  (  1,  5, 10)  (  1, 21,  3)
  0  -2.482      0   1.206      0  0.5369      0  0.1875      0  0.9689E-01
   (  1, 13,  2)  (  1, 26, 15)  (  1, 26, 15)  (  1, 26, 15)  (  1,  4, 15)
  0 -0.3670E-01  0 -0.1713E-01  0 -0.5177E-01  0  0.7237E-02  0 -0.4253E-02
   (  1,  2, 12)  (  1, 13,  2)  (  1,  5, 10)  (  1, 18, 15)  (  1,  2, 12)
  0 -0.1941E-02  0  0.6771E-03  1  -8.867      0   8.809      0   1.928    
   (  1,  3, 11)  (  1, 18, 15)  (  1,  5, 10)  (  1,  5, 10)  (  1, 21,  3)
  0  0.7827      0  0.3884      0  0.1641      0  0.5891E-01  0  0.2966E-01
   (  1, 26, 15)  (  1, 26, 15)  (  1, 26, 15)  (  1, 26, 15)  (  1,  4, 15)
  0  0.1150E-01  0  0.5411E-02  0 -0.1222E-01  0  0.2061E-02  0  0.1007E-02
   (  1,  4, 15)  (  1, 28, 15)  (  1,  5, 10)  (  1, 18, 15)  (  1, 18, 15)
  0 -0.4924E-03  1   1.219      0   3.361      0 -0.5752      0  0.2468    
   (  1,  3, 11)  (  1,  4, 15)  (  1,  5, 10)  (  1,  2, 12)  (  1, 26, 15)
  0  0.1203      0  0.4878E-01  0  0.1816E-01  0  0.8928E-02  0  0.3784E-02
   (  1, 26, 15)  (  1, 26, 15)  (  1, 26, 15)  (  1,  4, 15)  (  1,  4, 15)
  0 -0.7722E-02  0  0.1612E-02  1  0.4012      0 -0.9748      0  0.1711    
   (  1,  5, 10)  (  1, 28, 15)  (  1,  4, 15)  (  1,  5, 10)  (  1,  4, 15)
  0  0.7711E-01  0  0.3629E-01  0  0.1401E-01  0  0.5433E-02  0  0.2547E-02
   (  1, 26, 15)  (  1, 26, 15)  (  1, 26, 15)  (  1, 26,  5)  (  1,  4, 15)
  0  0.1152E-02  0 -0.2731E-02  1 -0.2900      0 -0.1743      0  0.5536E-01
   (  1, 28, 15)  (  1,  5, 10)  (  1,  4, 11)  (  1,  5, 10)  (  1,  4, 15)
  0  0.2385E-01  0  0.1088E-01  0  0.3993E-02  0  0.1310E-02  0  0.6175E-03
   (  1, 26, 15)  (  1, 26, 15)  (  1, 26, 15)  (  1, 26, 15)  (  1, 28, 15)
  1 -0.1331      0  0.3589E-01  0  0.1786E-01  0  0.7709E-02  0  0.3263E-02
   (  1,  4, 11)  (  1,  4, 15)  (  1,  4, 15)  (  1, 29, 15)  (  1, 26, 15)
  0  0.1233E-02  0  0.4057E-03  1 -0.5037E-01  0  0.1109E-01  0  0.5714E-02
   (  1, 26, 15)  (  1, 26, 15)  (  1,  4, 11)  (  1,  4, 15)  (  1,  4, 15)
  0  0.2520E-02  0  0.9984E-03  0  0.3943E-03  1 -0.1713E-01  0  0.3441E-02
   (  1, 29, 15)  (  1, 29, 15)  (  1, 26, 15)  (  1,  4, 11)  (  1,  4, 15)
  0  0.1832E-02  0  0.7502E-03  1 -0.5387E-02  0  0.1159E-02  1 -0.3066E-02
   (  1,  4, 15)  (  1, 29, 15)  (  1,  4, 11)  (  1,  4, 15)  (  1,  4, 11)



 OUTPUT CONTROL FOR STRESS PERIOD    2   TIME STEP    1
    SAVE HEAD FOR ALL LAYERS
    SAVE BUDGET
 UBDSV1 SAVING "         STORAGE" ON UNIT  53 AT TIME STEP  1, STRESS PERIOD   2
 UBDSV2 SAVING "   CONSTANT HEAD" ON UNIT  53 AT TIME STEP  1, STRESS PERIOD   2
 UBDSV1 SAVING "FLOW RIGHT FACE " ON UNIT  53 AT TIME STEP  1, STRESS PERIOD   2
 UBDSV1 SAVING "FLOW FRONT FACE " ON UNIT  53 AT TIME STEP  1, STRESS PERIOD   2

 HEAD WILL BE SAVED ON UNIT   51 AT END OF TIME STEP    1, STRESS PERIOD    2
1
  VOLUMETRIC BUDGET FOR ENTIRE MODEL AT END OF TIME STEP    1, STRESS PERIOD   2
  ------------------------------------------------------------------------------

     CUMULATIVE VOLUMES      L**3       RATES FOR THIS TIME STEP      L**3/T
     ------------------                 ------------------------

           IN:                                      IN:
           ---                                      ---
             STORAGE =     3233352.5000               STORAGE =        1771.7000
       CONSTANT HEAD =           0.0000         CONSTANT HEAD =           0.0000
               WELLS =     1225120.2500                 WELLS =         670.9791
       RIVER LEAKAGE =      222487.9219         RIVER LEAKAGE =         121.8733
            RECHARGE =     3798120.2500              RECHARGE =        2077.8411

            TOTAL IN =     8479081.0000              TOTAL IN =        4642.3936

          OUT:                                     OUT:
          ----                                     ----
             STORAGE =        5079.2554               STORAGE =           2.7832
       CONSTANT HEAD =      639883.8750         CONSTANT HEAD =         350.3214
               WELLS =           0.0000                 WELLS =           0.0000
       RIVER LEAKAGE =     7834195.5000         RIVER LEAKAGE =        4289.3315
            RECHARGE =           0.0000              RECHARGE =           0.0000

           TOTAL OUT =     8479159.0000             TOTAL OUT =        4642.4360

            IN - OUT =         -78.0000              IN - OUT =      -4.2480E-02

 PERCENT DISCREPANCY =          -0.00     PERCENT DISCREPANCY =          -0.00






         TIME SUMMARY AT END OF TIME STEP    1 IN STRESS PERIOD    2
                    SECONDS     MINUTES      HOURS       DAYS        YEARS
                    -----------------------------------------------------------
   TIME STEP LENGTH 1.57680E+08 2.62800E+06  43800.      1825.0      4.9966    
 STRESS PERIOD TIME 1.57680E+08 2.62800E+06  43800.      1825.0      4.9966    
         TOTAL TIME 1.57766E+08 2.62944E+06  43824.      1826.0      4.9993    
1
1
                            STRESS PERIOD NO.    3, LENGTH =   1.000000    
                            -----------------------------------------------

                              NUMBER OF TIME STEPS =     1

                               MULTIPLIER FOR DELT =     1.000

                            INITIAL TIME STEP SIZE =   1.000000    

 WELL NO.  LAYER   ROW   COL   STRESS RATE         
 --------------------------------------------------
      1      1      9     16       87.67    
      2      1     11     13       180.7    
      3      1     20     14       83.31    
      4      1     26     10       111.7    
      5      1     29      6       99.87    
      6      1     34     12       107.7    

      6 WELLS

 REUSING NON-PARAMETER RIVER REACHES FROM LAST STRESS PERIOD

     40 RIVER REACHES

 OPENING FILE ON UNIT   99:
 rech_2.ref                                                                                                                                                                                              



                           RECHARGE
 READING ON UNIT   99 WITH FORMAT: (20G15.6)           

 SOLVING FOR HEAD 


    11 CALLS TO PCG ROUTINE FOR TIME STEP   1 IN STRESS PERIOD    3
   153 TOTAL ITERATIONS

 MAXIMUM HEAD CHANGE FOR EACH ITERATION (1 INDICATES THE FIRST INNER ITERATION):

    HEAD CHANGE    HEAD CHANGE    HEAD CHANGE    HEAD CHANGE    HEAD CHANGE 
   LAYER,ROW,COL  LAYER,ROW,COL  LAYER,ROW,COL  LAYER,ROW,COL  LAYER,ROW,COL
 ---------------------------------------------------------------------------
  1  -1.631      0  -2.593      0  -1.539      0  -1.047      0 -0.8845    
   (  1,  9,  4)  (  1,  8,  5)  (  1, 21,  3)  (  1,  2,  6)  (  1, 28,  3)
  0 -0.3982      0 -0.2635      0 -0.1714      0  0.9704E-01  0 -0.8081E-01
   (  1,  1,  6)  (  1, 21,  1)  (  1,  4,  4)  (  1, 34,  9)  (  1,  9,  4)
  0  0.5548E-01  0  0.2588E-01  0 -0.2194E-01  0  0.8224E-02  0  0.2799E-02
   (  1, 10,  1)  (  1, 14, 11)  (  1,  4,  1)  (  1, 28,  4)  (  1,  5, 10)
  0  0.3297E-02  0 -0.1437E-02  0  0.1465E-02  0 -0.1229E-02  0 -0.5096E-03
   (  1,  3, 12)  (  1, 20, 11)  (  1,  9,  4)  (  1,  1,  2)  (  1,  3, 12)
  0 -0.2106E-03  0  0.9824E-04  0 -0.4769E-04  0 -0.3515E-04  0  0.4270E-04
   (  1,  6,  9)  (  1, 35, 12)  (  1, 27,  1)  (  1, 12,  3)  (  1,  9,  3)
  1 -0.5098      0 -0.2960      0 -0.2490      0 -0.1608      0 -0.1665    
   (  1,  9,  4)  (  1,  8,  5)  (  1,  9,  4)  (  1, 33,  2)  (  1, 28,  4)
  0 -0.7587E-01  0 -0.3119E-01  0 -0.2938E-01  0 -0.1634E-01  0  0.8183E-02
   (  1, 20,  4)  (  1,  1,  8)  (  1,  4,  4)  (  1, 32, 10)  (  1, 32, 10)
  0 -0.6051E-02  0  0.5111E-02  0 -0.4834E-02  0 -0.8719E-03  0 -0.8502E-03
   (  1,  9,  3)  (  1,  9,  4)  (  1,  4,  1)  (  1,  5, 10)  (  1, 16,  2)
  0  0.5301E-03  0  0.2505E-03  0 -0.2496E-03  0 -0.1556E-03  0  0.8842E-04
   (  1, 10, 13)  (  1, 33,  2)  (  1,  6,  9)  (  1,  9,  4)  (  1, 30,  3)
  0  0.5560E-04  0 -0.2224E-04  0 -0.1052E-04  0  0.3858E-05  1  0.7863E-01
   (  1, 33,  2)  (  1,  6,  9)  (  1,  5, 11)  (  1,  5, 10)  (  1,  9,  4)
  0 -0.7974E-01  0 -0.2575E-01  0 -0.7369E-01  0 -0.2625E-01  0  0.1601E-01
   (  1,  5, 10)  (  1,  9,  8)  (  1,  8,  5)  (  1, 21,  3)  (  1,  9,  4)
  0 -0.9732E-02  0  0.5959E-02  0  0.4814E-02  0 -0.2974E-02  0  0.2136E-02
   (  1, 28,  4)  (  1, 33,  9)  (  1, 10,  4)  (  1, 10,  1)  (  1,  9,  4)
  0 -0.1155E-02  0  0.6958E-03  0  0.1837E-03  0  0.2460E-03  0  0.2088E-03
   (  1,  9,  4)  (  1, 14, 11)  (  1,  3, 12)  (  1,  5, 10)  (  1,  2,  1)
  0  0.7430E-04  0 -0.9449E-04  0  0.4607E-04  0  0.2929E-04  0  0.8776E-05
   (  1,  6,  1)  (  1,  9,  4)  (  1, 15,  4)  (  1, 27,  1)  (  1,  1,  1)
  1  0.2764E-01  0  0.2895E-01  0 -0.7517E-02  0 -0.1459E-01  0  0.6188E-02
   (  1,  9,  4)  (  1,  8,  5)  (  1,  9,  8)  (  1,  9,  8)  (  1, 16,  1)
  0 -0.5666E-02  0  0.2623E-02  0  0.2408E-02  0  0.1637E-02  0  0.1241E-02
   (  1, 33,  8)  (  1, 28,  4)  (  1, 18,  4)  (  1, 21,  3)  (  1,  9,  4)
  0 -0.7264E-03  0  0.3533E-03  0  0.1669E-03  0 -0.8832E-04  0  0.1427E-03
   (  1, 10,  1)  (  1, 24,  2)  (  1, 14, 11)  (  1,  5, 10)  (  1,  2,  1)
  0 -0.4953E-04  0  0.2888E-04  0 -0.2321E-04  0  0.1501E-04  0  0.6438E-05
   (  1, 30,  9)  (  1,  6,  1)  (  1,  9,  4)  (  1,  6,  1)  (  1, 27,  1)
  1  0.9788E-02  0  0.7914E-02  0 -0.2628E-02  0 -0.2789E-02  0  0.2194E-02
   (  1,  9,  4)  (  1,  8,  5)  (  1, 32, 10)  (  1,  5, 10)  (  1, 28,  3)
  0 -0.1838E-02  0 -0.7961E-03  0  0.7846E-03  0  0.4937E-03  0  0.4584E-03
   (  1, 34,  9)  (  1,  9,  8)  (  1, 20,  4)  (  1, 21,  3)  (  1,  9,  4)
  0 -0.2690E-03  0  0.1086E-03  0  0.5253E-04  0 -0.1982E-04  0  0.3706E-04
   (  1, 10,  1)  (  1, 24,  2)  (  1,  2,  1)  (  1,  5, 10)  (  1,  2,  1)
  0 -0.1318E-04  0 -0.5904E-05  1  0.2592E-02  0  0.1981E-02  0 -0.1244E-02
   (  1, 30,  9)  (  1, 11,  1)  (  1,  8,  5)  (  1,  9,  4)  (  1, 10,  4)
  0 -0.5822E-03  0  0.7790E-03  0 -0.4871E-03  0 -0.2670E-03  0  0.2280E-03
   (  1,  5, 10)  (  1, 28,  3)  (  1, 34,  9)  (  1,  9,  8)  (  1, 20,  4)
  0  0.1205E-03  0 -0.7645E-04  0 -0.7633E-04  0  0.5762E-04  0 -0.1693E-04
   (  1, 21,  3)  (  1, 32, 10)  (  1,  9,  4)  (  1, 19,  4)  (  1, 11, 12)
  0  0.6454E-05  1 -0.4563E-03  0  0.9095E-03  0 -0.2836E-03  0  0.1413E-03
   (  1, 11, 12)  (  1,  9,  4)  (  1,  9,  4)  (  1, 32, 10)  (  1,  5, 10)
  0  0.2229E-03  0 -0.1175E-03  0 -0.8326E-04  0  0.6151E-04  0  0.2808E-04
   (  1, 28,  3)  (  1, 34,  9)  (  1,  9,  8)  (  1, 20,  4)  (  1,  9,  4)
  0 -0.2328E-04  0  0.2963E-04  0 -0.1214E-04  0  0.4599E-05  1 -0.1491E-03
   (  1, 12,  3)  (  1,  9,  4)  (  1,  9,  4)  (  1,  4,  3)  (  1,  9,  4)
  0  0.2032E-03  0 -0.6467E-04  0 -0.4672E-04  0  0.7737E-04  0  0.3187E-04
   (  1,  9,  4)  (  1,  5, 10)  (  1, 32, 10)  (  1, 28,  4)  (  1,  8,  5)
  0 -0.2469E-04  0  0.1750E-04  0 -0.6421E-05  1 -0.4628E-04  0  0.4265E-04
   (  1,  9,  8)  (  1,  4,  4)  (  1, 17,  2)  (  1,  9,  4)  (  1,  9,  4)
  0 -0.1850E-04  0 -0.1798E-04  0  0.2222E-04  0  0.8633E-05  1 -0.1554E-04
   (  1,  5, 10)  (  1, 11, 12)  (  1, 28,  4)  (  1,  8,  6)  (  1,  9,  4)
  0  0.1176E-04  0 -0.5817E-05  1 -0.4439E-05
   (  1,  6,  9)  (  1,  5, 10)  (  1,  9,  4)

 MAXIMUM RESIDUAL FOR EACH ITERATION (1 INDICATES THE FIRST INNER ITERATION):

    RESIDUAL       RESIDUAL       RESIDUAL       RESIDUAL       RESIDUAL    
   LAYER,ROW,COL  LAYER,ROW,COL  LAYER,ROW,COL  LAYER,ROW,COL  LAYER,ROW,COL
 ---------------------------------------------------------------------------
  1   87.35      0   241.3      0   287.4      0   104.2      0   49.64    
   (  1,  7,  4)  (  1,  4, 11)  (  1,  5, 10)  (  1,  4, 11)  (  1,  4, 15)
  0  -41.20      0  -31.64      0  -10.48      0   7.706      0   6.003    
   (  1,  2, 12)  (  1,  2, 12)  (  1, 27, 14)  (  1,  2, 12)  (  1,  2, 12)
  0   3.341      0   2.084      0  -1.197      0  -1.874      0 -0.5969    
   (  1,  5, 14)  (  1,  1, 15)  (  1, 30, 13)  (  1,  5, 10)  (  1,  4, 11)
  0  0.3341      0  0.1918      0  0.1787      0  0.1205      0  0.7064E-01
   (  1,  1, 15)  (  1,  4, 10)  (  1,  4, 10)  (  1,  4, 10)  (  1,  4, 10)
  0  0.4795E-01  0  0.2663E-01  0  0.1651E-01  0  0.1302E-01  0 -0.1220E-01
   (  1,  4, 10)  (  1,  4, 10)  (  1,  4, 10)  (  1,  4, 10)  (  1,  5, 10)
  1   70.56      0   53.20      0   27.58      0  -14.41      0   10.68    
   (  1,  4, 11)  (  1,  4, 11)  (  1,  5, 10)  (  1,  3, 11)  (  1,  4, 15)
  0  -8.209      0   3.675      0   2.119      0   1.385      0  0.7438    
   (  1,  2, 12)  (  1, 30, 13)  (  1, 26, 15)  (  1,  2, 12)  (  1,  2, 15)
  0  0.6961      0  0.4214      0  0.2283      0 -0.4937      0  0.1201    
   (  1,  2, 15)  (  1,  2, 15)  (  1,  1, 15)  (  1,  5, 10)  (  1,  1, 15)
  0  0.6513E-01  0  0.3384E-01  0  0.1896E-01  0  0.1687E-01  0  0.1026E-01
   (  1,  1, 15)  (  1,  1, 15)  (  1,  1, 15)  (  1,  1, 15)  (  1,  4, 10)
  0  0.6244E-02  0  0.3585E-02  0 -0.1853E-02  0  0.1648E-02  1  -5.772    
   (  1,  4, 10)  (  1,  4, 10)  (  1,  5, 10)  (  1,  4, 10)  (  1, 29,  6)
  0   12.30      0   8.849      0   3.743      0   2.450      0   1.376    
   (  1,  4, 11)  (  1,  5, 10)  (  1, 22, 14)  (  1,  4, 15)  (  1,  4, 15)
  0  0.9254      0  0.6231      0  0.3966      0  0.3571      0  0.2044    
   (  1, 26, 15)  (  1, 26, 15)  (  1, 26, 15)  (  1, 26, 15)  (  1, 26, 15)
  0  0.9837E-01  0  0.5858E-01  0 -0.1266      0  0.2460E-01  0  0.1329E-01
   (  1, 26, 15)  (  1,  4, 15)  (  1,  5, 10)  (  1,  4, 15)  (  1,  1, 15)
  0  0.6930E-02  0  0.5944E-02  0  0.3303E-02  0  0.1740E-02  0  0.1070E-02
   (  1,  1, 15)  (  1,  1, 15)  (  1,  1, 15)  (  1,  3, 15)  (  1,  3, 15)
  1  -2.087      0   1.875      0   4.274      0   1.140      0  0.6831    
   (  1, 29,  6)  (  1,  4, 11)  (  1,  5, 10)  (  1, 22, 14)  (  1,  4, 15)
  0  0.4023      0  0.2748      0  0.1933      0  0.1191      0  0.1050    
   (  1,  4, 15)  (  1, 26, 15)  (  1, 26, 15)  (  1, 26, 15)  (  1, 26, 15)
  0  0.6346E-01  0  0.2780E-01  0  0.5101E-01  0  0.1548E-01  0  0.6787E-02
   (  1, 26, 15)  (  1, 26, 15)  (  1,  5, 10)  (  1,  4, 11)  (  1,  4, 15)
  0  0.3498E-02  0  0.2068E-02  0  0.1890E-02  0  0.1006E-02  0  0.4749E-03
   (  1, 28, 15)  (  1, 28, 15)  (  1, 28, 15)  (  1, 28, 15)  (  1, 28, 15)
  1 -0.6070      0 -0.4555      0   1.362      0  0.3331      0  0.1984    
   (  1, 29,  6)  (  1, 29,  6)  (  1,  5, 10)  (  1, 22, 14)  (  1,  4, 15)
  0  0.1347      0  0.8333E-01  0  0.5577E-01  0  0.3412E-01  0  0.2412E-01
   (  1, 29, 15)  (  1, 29, 15)  (  1, 26, 15)  (  1, 26, 15)  (  1, 26, 15)
  0  0.1835E-01  0  0.8011E-02  0  0.9263E-02  0  0.7117E-02  0  0.2241E-02
   (  1, 23, 13)  (  1, 26, 15)  (  1,  5, 10)  (  1,  4, 11)  (  1,  3, 11)
  0  0.1129E-02  0  0.6612E-03  1 -0.1346      0  0.1437      0  0.2604    
   (  1, 28, 15)  (  1, 28, 15)  (  1, 26, 10)  (  1,  5, 10)  (  1,  5, 10)
  0 -0.1197      0  0.5922E-01  0  0.4222E-01  0  0.2617E-01  0  0.1618E-01
   (  1,  5, 10)  (  1, 29, 15)  (  1, 29, 15)  (  1, 29, 15)  (  1, 29, 15)
  0  0.9715E-02  0  0.5458E-02  0  0.4176E-02  0  0.2403E-02  0  0.1378E-02
   (  1, 26, 15)  (  1, 26, 15)  (  1, 26, 15)  (  1, 26, 15)  (  1, 26, 15)
  0 -0.3163E-02  1 -0.4952E-01  0  0.3892E-01  0 -0.4889E-01  0 -0.5019E-01
   (  1,  5, 10)  (  1, 26, 10)  (  1, 22, 14)  (  1,  5, 10)  (  1,  4, 11)
  0  0.1782E-01  0  0.1287E-01  0  0.7953E-02  0  0.4999E-02  0  0.2999E-02
   (  1, 29, 15)  (  1, 29, 15)  (  1, 29, 15)  (  1, 29, 15)  (  1, 29, 15)
  0  0.2385E-02  0  0.1425E-02  0  0.7237E-03  0  0.3983E-03  1 -0.1503E-01
   (  1, 29, 15)  (  1, 26, 15)  (  1, 26, 15)  (  1, 26, 15)  (  1, 26, 10)
  0  0.1534E-01  0 -0.2399E-01  0  0.7029E-02  0  0.5389E-02  0  0.3833E-02
   (  1,  5, 10)  (  1,  5, 10)  (  1,  4, 15)  (  1, 29, 15)  (  1, 29, 15)
  0  0.2365E-02  0  0.1444E-02  0  0.9034E-03  1 -0.4610E-02  0 -0.6732E-02
   (  1, 29, 15)  (  1, 29, 15)  (  1, 29, 15)  (  1, 26, 10)  (  1,  4, 11)
  0 -0.5258E-02  0  0.2250E-02  0  0.1783E-02  0  0.1108E-02  1 -0.1632E-02
   (  1,  5, 10)  (  1,  4, 15)  (  1, 29, 15)  (  1, 29, 15)  (  1, 26, 10)
  0 -0.2030E-02  0 -0.1872E-02  1 -0.1212E-02
   (  1,  4, 11)  (  1,  5, 10)  (  1,  4, 11)



 OUTPUT CONTROL FOR STRESS PERIOD    3   TIME STEP    1
    SAVE HEAD FOR ALL LAYERS
    SAVE BUDGET
 UBDSV2 SAVING "   CONSTANT HEAD" ON UNIT  53 AT TIME STEP  1, STRESS PERIOD   3
 UBDSV1 SAVING "FLOW RIGHT FACE " ON UNIT  53 AT TIME STEP  1, STRESS PERIOD   3
 UBDSV1 SAVING "FLOW FRONT FACE " ON UNIT  53 AT TIME STEP  1, STRESS PERIOD   3

 HEAD WILL BE SAVED ON UNIT   51 AT END OF TIME STEP    1, STRESS PERIOD    3
1
  VOLUMETRIC BUDGET FOR ENTIRE MODEL AT END OF TIME STEP    1, STRESS PERIOD   3
  ------------------------------------------------------------------------------

     CUMULATIVE VOLUMES      L**3       RATES FOR THIS TIME STEP      L**3/T
     ------------------                 ------------------------

           IN:                                      IN:
           ---                                      ---
             STORAGE =     3233352.5000               STORAGE =           0.0000
       CONSTANT HEAD =          19.5874         CONSTANT HEAD =          19.5874
               WELLS =     1225791.2500                 WELLS =         670.9791
       RIVER LEAKAGE =      222675.3594         RIVER LEAKAGE =         187.4367
            RECHARGE =     3800198.0000              RECHARGE =        2077.8411

            TOTAL IN =     8482036.0000              TOTAL IN =        2955.8442

          OUT:                                     OUT:
          ----                                     ----
             STORAGE =        5079.2554               STORAGE =           0.0000
       CONSTANT HEAD =      640051.9375         CONSTANT HEAD =         168.0595
               WELLS =           0.0000                 WELLS =           0.0000
       RIVER LEAKAGE =     7836983.5000         RIVER LEAKAGE =        2787.8262
            RECHARGE =           0.0000              RECHARGE =           0.0000

           TOTAL OUT =     8482115.0000             TOTAL OUT =        2955.8857

            IN - OUT =         -79.0000              IN - OUT =      -4.1504E-02

 PERCENT DISCREPANCY =          -0.00     PERCENT DISCREPANCY =          -0.00






         TIME SUMMARY AT END OF TIME STEP    1 IN STRESS PERIOD    3
                    SECONDS     MINUTES      HOURS       DAYS        YEARS
                    -----------------------------------------------------------
   TIME STEP LENGTH  86400.      1440.0      24.000      1.0000     2.73785E-03
 STRESS PERIOD TIME  86400.      1440.0      24.000      1.0000     2.73785E-03
         TOTAL TIME 1.57853E+08 2.63088E+06  43848.      1827.0      5.0021    
1

 Run end date and time (yyyy/mm/dd hh:mm:ss): 2016/06/22 18:10:57
 Elapsed run time:  0.024 Seconds

