                                  MODFLOW-NWT-SWR1 
      U.S. GEOLOGICAL SURVEY MODULAR FINITE-DIFFERENCE GROUNDWATER-FLOW MODEL
                            VERSION 1.0.9 07/01/2014
                    BASED ON MODFLOW-2005 VERSION 1.11.00 08/30/2013

 LIST FILE: freyberg.list
                         UNIT    2

 OPENING freyberg.dis
 FILE TYPE:DIS   UNIT   11   STATUS:OLD    
 FORMAT:FORMATTED              ACCESS:SEQUENTIAL          

 OPENING freyberg.upw
 FILE TYPE:LPF   UNIT   31   STATUS:OLD    
 FORMAT:FORMATTED              ACCESS:SEQUENTIAL          

 OPENING freyberg.bas
 FILE TYPE:BAS6   UNIT   13   STATUS:OLD    
 FORMAT:FORMATTED              ACCESS:SEQUENTIAL          

 OPENING freyberg.rch
 FILE TYPE:RCH   UNIT   19   STATUS:OLD    
 FORMAT:FORMATTED              ACCESS:SEQUENTIAL          

 OPENING freyberg.wel
 FILE TYPE:WEL   UNIT   20   STATUS:OLD    
 FORMAT:FORMATTED              ACCESS:SEQUENTIAL          

 OPENING freyberg.riv
 FILE TYPE:RIV   UNIT   18   STATUS:OLD    
 FORMAT:FORMATTED              ACCESS:SEQUENTIAL          

 OPENING freyberg.oc
 FILE TYPE:OC   UNIT   14   STATUS:OLD    
 FORMAT:FORMATTED              ACCESS:SEQUENTIAL          

 OPENING freyberg.hds
 FILE TYPE:DATA   UNIT   51   STATUS:REPLACE
 FORMAT:FORMATTED              ACCESS:SEQUENTIAL          

 OPENING freyberg.ddn
 FILE TYPE:DATA(BINARY)   UNIT   52   STATUS:REPLACE
 FORMAT:UNFORMATTED            ACCESS:STREAM              

 OPENING freyberg.cbc
 FILE TYPE:DATA(BINARY)   UNIT   53   STATUS:REPLACE
 FORMAT:UNFORMATTED            ACCESS:STREAM              

 OPENING freyberg.pcg
 FILE TYPE:PCG   UNIT   32   STATUS:OLD    
 FORMAT:FORMATTED              ACCESS:SEQUENTIAL          

 BAS -- BASIC PACKAGE, VERSION 7, 5/2/2005 INPUT READ FROM UNIT   13

 MODFLOW was compiled using mixed precision
 Precision of REAL variables:           6
 Precision of DOUBLE PRECISION variables:          15

 DISCRETIZATION INPUT DATA READ FROM UNIT   11
 # Discretization file for MODFLOW, generated by Flopy.
    1 LAYERS        40 ROWS        20 COLUMNS
    3 STRESS PERIOD(S) IN SIMULATION
 MODEL TIME UNIT IS DAYS
 MODEL LENGTH UNIT IS METERS
  Confining bed flag for each layer:
   0



                               DELR
 READING ON UNIT   11 WITH FORMAT: (20G15.6)           



                               DELC
 READING ON UNIT   11 WITH FORMAT: (40G15.6)           

 TOP ELEVATION OF LAYER 1 =   35.0000    

 OPENING FILE ON UNIT   99:
 botm.ref                                                                                                                                                                                                



             MODEL LAYER BOTTOM EL. FOR LAYER   1
 READING ON UNIT   99 WITH FORMAT: (10E12.4)           


 STRESS PERIOD     LENGTH       TIME STEPS     MULTIPLIER FOR DELT    SS FLAG
 ----------------------------------------------------------------------------
        1         1.000000          1                    1.000         SS
        2         1825.000          1                    1.000         TR
        3         1.000000          1                    1.000         SS

 COMBINED STEADY-STATE AND TRANSIENT SIMULATION




 # Basic package file for MODFLOW, generated by Flopy.                           
 THE FREE FORMAT OPTION HAS BEEN SELECTED

 OPENING FILE ON UNIT   99:
 ibound.ref                                                                                                                                                                                              



                     BOUNDARY ARRAY FOR LAYER   1
 READING ON UNIT   99 WITH FORMAT: (25I3)              

 AQUIFER HEAD WILL BE SET TO  -999.99     AT ALL NO-FLOW NODES (IBOUND=0).

 OPENING FILE ON UNIT   99:
 strt.ref                                                                                                                                                                                                



                       INITIAL HEAD FOR LAYER   1
 READING ON UNIT   99 WITH FORMAT: (10E12.4)           
 # Output control package file for MODFLOW, generated by Flopy.

 OUTPUT CONTROL IS SPECIFIED ONLY AT TIME STEPS FOR WHICH OUTPUT IS DESIRED
 HEADS WILL BE SAVED WITH FORMAT: (20E15.6)           
 COMPACT CELL-BY-CELL BUDGET FILES WILL BE WRITTEN
 AUXILIARY DATA WILL BE SAVED IN CELL-BY-CELL BUDGET FILES
 HEAD PRINT FORMAT CODE IS   0    DRAWDOWN PRINT FORMAT CODE IS   0
 HEADS WILL BE SAVED ON UNIT   51    DRAWDOWNS WILL BE SAVED ON UNIT   52

 LPF -- LAYER-PROPERTY FLOW PACKAGE, VERSION 7, 5/2/2005
         INPUT READ FROM UNIT   31
 # UPW for MODFLOW-NWT, generated by Flopy.
 CELL-BY-CELL FLOWS WILL BE SAVED ON UNIT   53
 HEAD AT CELLS THAT CONVERT TO DRY= -1.00000E+30
 No named parameters

   LAYER FLAGS:
 LAYER       LAYTYP        LAYAVG         CHANI        LAYVKA        LAYWET
 ---------------------------------------------------------------------------
    1             1             0     1.000E+00             0             0

   INTERPRETATION OF LAYER FLAGS:
                        INTERBLOCK     HORIZONTAL    DATA IN
         LAYER TYPE   TRANSMISSIVITY   ANISOTROPY   ARRAY VKA   WETTABILITY
 LAYER      (LAYTYP)      (LAYAVG)       (CHANI)      (LAYVKA)      (LAYWET)
 ---------------------------------------------------------------------------
    1   CONVERTIBLE      HARMONIC     1.000E+00    VERTICAL K  NON-WETTABLE

 WETTING CAPABILITY IS NOT ACTIVE IN ANY LAYER

 OPENING FILE ON UNIT   99:
 hk_Layer_1.ref                                                                                                                                                                                          



              HYD. COND. ALONG ROWS FOR LAYER   1
 READING ON UNIT   99 WITH FORMAT: (20G15.6)           

      VERTICAL HYD. COND. =   1.00000     FOR LAYER   1

 OPENING FILE ON UNIT   99:
 ss_Layer_1.ref                                                                                                                                                                                          



                   SPECIFIC STORAGE FOR LAYER   1
 READING ON UNIT   99 WITH FORMAT: (20G15.6)           

           SPECIFIC YIELD =  0.100000     FOR LAYER   1

 WEL -- WELL PACKAGE, VERSION 1.0.6, 12/05/2012 INPUT READ FROM UNIT   20
 # Well file for MODFLOW, generated by Flopy.
 No named parameters
 MAXIMUM OF      6 ACTIVE WELLS AT ONE TIME
 No named parameters


     0 Well parameters

 RIV -- RIVER PACKAGE, VERSION 7, 5/2/2005 INPUT READ FROM UNIT   18
 # RIV for MODFLOW, generated by Flopy.
 No named parameters
 MAXIMUM OF     40 ACTIVE RIVER REACHES AT ONE TIME


     0 River parameters

 RCH -- RECHARGE PACKAGE, VERSION 7, 5/2/2005 INPUT READ FROM UNIT   19
 # RCH for MODFLOW, generated by Flopy.
 No named parameters
 OPTION 3 -- RECHARGE TO HIGHEST ACTIVE NODE IN EACH VERTICAL COLUMN


     0 Recharge parameters

 PCG -- CONJUGATE-GRADIENT SOLUTION PACKAGE, VERSION 7, 5/2/2005
 MAXIMUM OF    100 CALLS OF SOLUTION ROUTINE
 MAXIMUM OF     25 INTERNAL ITERATIONS PER CALL TO SOLUTION ROUTINE
 MATRIX PRECONDITIONING TYPE :    1
 IHCOFADD option -- When an active cell is surrounded by dry cells, convert
 the cell to dry only if storage and head-dependent boundary flow are 0.



                                    SOLUTION BY THE CONJUGATE-GRADIENT METHOD
                                   -------------------------------------------
                    MAXIMUM NUMBER OF CALLS TO PCG ROUTINE =      100
                        MAXIMUM ITERATIONS PER CALL TO PCG =       25
                               MATRIX PRECONDITIONING TYPE =        1
        RELAXATION FACTOR (ONLY USED WITH PRECOND. TYPE 1) =    0.10000E+01
 PARAMETER OF POLYNOMIAL PRECOND. = 2 (2) OR IS CALCULATED :        2
                         HEAD CHANGE CRITERION FOR CLOSURE =    0.10000E-04
                     RESIDUAL CHANGE CRITERION FOR CLOSURE =    0.10000E+00
            PCG HEAD AND RESIDUAL CHANGE PRINTOUT INTERVAL =        5
     PRINTING FROM SOLVER IS LIMITED(1) OR SUPPRESSED (>1) =        0
                            STEADY-STATE DAMPING PARAMETER =    0.70000E+00
                               TRANSIENT DAMPING PARAMETER =    0.70000E+00
1
                            STRESS PERIOD NO.    1, LENGTH =   1.000000    
                            -----------------------------------------------

                              NUMBER OF TIME STEPS =     1

                               MULTIPLIER FOR DELT =     1.000

                            INITIAL TIME STEP SIZE =   1.000000    

 WELL NO.  LAYER   ROW   COL   STRESS RATE         
 --------------------------------------------------
      1      1      9     16       100.0    
      2      1     11     13       100.0    
      3      1     20     14       100.0    
      4      1     26     10       100.0    
      5      1     29      6       100.0    
      6      1     34     12       100.0    

      6 WELLS

 REACH NO.  LAYER   ROW   COL     STAGE      CONDUCTANCE     BOTTOM EL.         
 -------------------------------------------------------------------------------
      1      1      1     15       20.10           4500.           20.00    
      2      1      2     15       19.87           4500.           19.75    
      3      1      3     15       19.65           4500.           19.50    
      4      1      4     15       19.42           4500.           19.25    
      5      1      5     15       19.19           4500.           19.00    
      6      1      6     15       18.97           4500.           18.75    
      7      1      7     15       18.74           4500.           18.50    
      8      1      8     15       18.51           4500.           18.25    
      9      1      9     15       18.28           4500.           18.00    
     10      1     10     15       19.06           4500.           17.75    
     11      1     11     15       17.83           4500.           17.50    
     12      1     12     15       17.60           4500.           17.25    
     13      1     13     15       17.38           4500.           17.00    
     14      1     14     15       17.15           4500.           16.75    
     15      1     15     15       16.92           4500.           16.50    
     16      1     16     15       16.70           4500.           16.25    
     17      1     17     15       16.47           4500.           16.00    
     18      1     18     15       16.24           4500.           15.75    
     19      1     19     15       16.02           4500.           15.50    
     20      1     20     15       15.79           4500.           15.25    
     21      1     21     15       15.56           4500.           15.00    
     22      1     22     15       15.33           4500.           14.75    
     23      1     23     15       15.11           4500.           14.50    
     24      1     24     15       14.88           4500.           14.25    
     25      1     25     15       14.65           4500.           14.00    
     26      1     26     15       14.43           4500.           13.75    
     27      1     27     15       14.20           4500.           13.50    
     28      1     28     15       13.97           4500.           13.25    
     29      1     29     15       13.75           4500.           13.00    
     30      1     30     15       13.52           4500.           12.75    
     31      1     31     15       13.29           4500.           12.50    
     32      1     32     15       13.07           4500.           12.25    
     33      1     33     15       12.84           4500.           12.00    
     34      1     34     15       12.61           4500.           11.75    
     35      1     35     15       12.38           4500.           11.50    
     36      1     36     15       12.16           4500.           11.25    
     37      1     37     15       11.93           4500.           11.00    
     38      1     38     15       11.70           4500.           10.75    
     39      1     39     15       11.48           4500.           10.50    
     40      1     40     15       11.25           4500.           10.25    

     40 RIVER REACHES

 OPENING FILE ON UNIT   99:
 rech_0.ref                                                                                                                                                                                              



                           RECHARGE
 READING ON UNIT   99 WITH FORMAT: (20G15.6)           

 SOLVING FOR HEAD 


    15 CALLS TO PCG ROUTINE FOR TIME STEP   1 IN STRESS PERIOD    1
   189 TOTAL ITERATIONS

 MAXIMUM HEAD CHANGE FOR EACH ITERATION (1 INDICATES THE FIRST INNER ITERATION):

    HEAD CHANGE    HEAD CHANGE    HEAD CHANGE    HEAD CHANGE    HEAD CHANGE 
   LAYER,ROW,COL  LAYER,ROW,COL  LAYER,ROW,COL  LAYER,ROW,COL  LAYER,ROW,COL
 ---------------------------------------------------------------------------
  1  -48.31      0  -36.25      0   15.86      0   7.147      0  -3.260    
   (  1, 39, 11)  (  1,  9,  4)  (  1, 32,  1)  (  1, 26,  6)  (  1, 33,  2)
  0  -1.337      0 -0.5446      0 -0.2812      0 -0.1624      0 -0.9021E-01
   (  1, 29,  5)  (  1, 37,  5)  (  1, 37,  5)  (  1, 19,  4)  (  1,  8,  5)
  0 -0.4196E-01  0  0.6168E-01  0  0.1436E-01  0  0.8108E-02  0  0.2094E-02
   (  1,  9,  4)  (  1,  9,  4)  (  1, 32,  1)  (  1, 13,  3)  (  1, 35,  4)
  0  0.1021E-02  0 -0.5882E-03  0 -0.3197E-03  0  0.2528E-03  0 -0.5935E-04
   (  1,  3,  6)  (  1,  1,  2)  (  1, 10,  1)  (  1,  9,  4)  (  1, 10,  2)
  0 -0.3430E-04  0 -0.8993E-05  1  -12.83      0  -13.74      0  -5.470    
   (  1,  8,  4)  (  1, 14,  3)  (  1, 39, 11)  (  1,  9,  4)  (  1,  8,  5)
  0   2.404      0  -1.164      0 -0.4457      0 -0.2324      0 -0.8639E-01
   (  1, 39, 11)  (  1, 33,  2)  (  1, 27,  4)  (  1, 13,  1)  (  1, 27,  3)
  0 -0.3499E-01  0 -0.2651E-01  0 -0.8560E-02  0  0.8005E-02  0 -0.4870E-02
   (  1, 23,  5)  (  1, 31,  6)  (  1, 34,  3)  (  1,  9,  4)  (  1, 11,  2)
  0  0.2042E-02  0 -0.6878E-03  0  0.3981E-03  0  0.1574E-03  0 -0.7138E-04
   (  1, 13,  3)  (  1,  6,  8)  (  1,  3,  5)  (  1, 33,  6)  (  1, 12,  1)
  0  0.3669E-04  0 -0.3019E-04  0 -0.1009E-04  0  0.3038E-05  1   11.85    
   (  1,  9,  4)  (  1,  9,  4)  (  1,  2,  1)  (  1, 33,  8)  (  1,  9,  4)
  0  -8.128      0  -3.429      0 -0.8632      0 -0.6393      0 -0.1481    
   (  1,  9,  4)  (  1,  8,  5)  (  1,  3,  6)  (  1, 33,  2)  (  1, 27,  4)
  0 -0.8171E-01  0 -0.3767E-01  0 -0.1704E-01  0 -0.1134E-01  0  0.5959E-02
   (  1, 17,  4)  (  1, 28,  4)  (  1, 24,  6)  (  1, 32,  6)  (  1,  9,  4)
  0 -0.2880E-02  0 -0.1173E-02  0  0.5880E-03  0  0.2774E-03  0  0.1170E-03
   (  1, 26,  7)  (  1, 31,  3)  (  1,  7,  9)  (  1, 21,  3)  (  1,  2,  1)
  0  0.7190E-04  0 -0.4550E-04  0  0.1773E-04  0 -0.1569E-04  0  0.4184E-05
   (  1, 17,  4)  (  1, 14,  2)  (  1,  9,  4)  (  1,  9,  4)  (  1, 24,  2)
  1   1.649      0  -1.037      0 -0.5688      0 -0.3061      0 -0.2390    
   (  1,  8,  5)  (  1,  8,  5)  (  1,  9,  4)  (  1, 31,  1)  (  1, 33,  2)
  0 -0.7023E-01  0 -0.4180E-01  0 -0.2039E-01  0  0.8881E-02  0 -0.4055E-02
   (  1, 20,  3)  (  1, 31,  5)  (  1,  8,  5)  (  1,  5,  1)  (  1, 18,  4)
  0  0.1974E-02  0 -0.1136E-02  0  0.7200E-03  0  0.2279E-03  0 -0.1020E-03
   (  1, 11,  1)  (  1,  9,  2)  (  1,  9,  4)  (  1, 20,  9)  (  1,  4,  6)
  0  0.4906E-04  0  0.3609E-04  0 -0.1255E-04  0 -0.3921E-05  1 -0.4779    
   (  1,  4,  5)  (  1, 17,  4)  (  1, 15,  2)  (  1, 13, 10)  (  1,  9,  4)
  0  0.7110      0 -0.2213      0 -0.1348      0 -0.7287E-01  0 -0.2768E-01
   (  1,  9,  4)  (  1, 29,  8)  (  1, 24,  9)  (  1, 32,  1)  (  1, 19,  3)
  0 -0.1698E-01  0 -0.4916E-02  0 -0.2544E-02  0 -0.1467E-02  0 -0.7174E-03
   (  1, 31,  5)  (  1, 37,  5)  (  1, 34,  6)  (  1,  8,  5)  (  1,  9,  4)
  0  0.9893E-03  0 -0.3016E-03  0  0.1207E-03  0 -0.4455E-04  0  0.2036E-04
   (  1, 10,  1)  (  1, 15,  4)  (  1, 11,  2)  (  1,  4,  6)  (  1,  4,  5)
  0  0.1064E-04  0 -0.4565E-05  1 -0.2783      0  0.2786      0  0.7721E-01
   (  1, 18,  4)  (  1,  8,  5)  (  1,  9,  4)  (  1,  9,  4)  (  1,  8,  5)
  0 -0.6311E-01  0 -0.2776E-01  0 -0.9779E-02  0 -0.5551E-02  0 -0.1998E-02
   (  1,  8,  5)  (  1, 32,  1)  (  1, 19,  3)  (  1, 30,  5)  (  1, 37,  5)
  0 -0.9738E-03  0 -0.4304E-03  0  0.2986E-03  0 -0.1478E-03  0 -0.6328E-04
   (  1, 29,  7)  (  1, 34,  6)  (  1,  9,  4)  (  1,  9,  4)  (  1, 33,  7)
  0  0.4318E-04  0 -0.1503E-04  0  0.8770E-05  1 -0.7553E-01  0  0.7011E-01
   (  1, 11,  2)  (  1,  5,  7)  (  1,  4,  5)  (  1,  9,  4)  (  1,  9,  4)
  0  0.3223E-01  0 -0.2178E-01  0 -0.1025E-01  0 -0.3463E-02  0 -0.1307E-02
   (  1,  8,  5)  (  1,  8,  5)  (  1, 32,  1)  (  1, 20,  3)  (  1, 31,  5)
  0 -0.5972E-03  0 -0.2890E-03  0 -0.1291E-03  0 -0.8550E-04  0  0.8171E-04
   (  1, 37,  5)  (  1, 30,  7)  (  1, 34,  6)  (  1,  9,  4)  (  1, 13,  1)
  0  0.2196E-04  0 -0.1339E-04  0  0.4384E-05  1  0.1463E-01  0  0.1625E-01
   (  1, 32,  1)  (  1, 37,  5)  (  1, 16, 10)  (  1, 23, 10)  (  1,  9,  4)
  0 -0.7795E-02  0 -0.6993E-02  0 -0.3316E-02  0 -0.8725E-03  0 -0.3825E-03
   (  1,  9,  4)  (  1,  8,  5)  (  1, 32,  1)  (  1, 30,  7)  (  1, 37,  5)
  0 -0.1405E-03  0 -0.6818E-04  0 -0.4885E-04  0  0.1960E-04  0 -0.1447E-04
   (  1, 37,  5)  (  1, 28,  9)  (  1, 34,  7)  (  1, 13,  1)  (  1,  9,  4)
  0  0.9288E-05  1  0.4386E-02  0 -0.4718E-02  0  0.3320E-02  0 -0.1643E-02
   (  1,  9,  4)  (  1, 23, 11)  (  1,  9,  4)  (  1,  9,  4)  (  1,  9,  4)
  0 -0.9600E-03  0 -0.2521E-03  0 -0.1299E-03  0 -0.5141E-04  0 -0.2203E-04
   (  1, 33,  2)  (  1, 31,  7)  (  1,  8,  5)  (  1, 37,  5)  (  1, 29,  9)
  0 -0.1276E-04  0 -0.4616E-05  1  0.2097E-02  0 -0.2326E-02  0 -0.8353E-03
   (  1, 35,  7)  (  1, 10, 11)  (  1,  9,  4)  (  1,  9,  4)  (  1, 23, 10)
  0 -0.3835E-03  0 -0.2648E-03  0  0.6097E-04  0 -0.4386E-04  0 -0.1411E-04
   (  1, 28,  4)  (  1, 33,  2)  (  1,  9,  4)  (  1,  8,  5)  (  1, 37,  5)
  0 -0.4941E-05  1  0.8736E-03  0 -0.8388E-03  0 -0.2457E-03  0 -0.1127E-03
   (  1, 14,  9)  (  1,  9,  4)  (  1,  9,  4)  (  1, 22, 10)  (  1, 28,  3)
  0 -0.7259E-04  0 -0.1874E-04  0 -0.8030E-05  1  0.2736E-03  0 -0.2465E-03
   (  1, 33,  2)  (  1, 32,  9)  (  1, 37,  5)  (  1,  9,  4)  (  1,  9,  4)
  0 -0.6950E-04  0 -0.3400E-04  0 -0.1817E-04  0 -0.7893E-05  1  0.8739E-04
   (  1, 22, 11)  (  1, 27,  4)  (  1, 33,  2)  (  1, 29,  1)  (  1,  9,  4)
  0 -0.6977E-04  0 -0.3013E-04  0 -0.1190E-04  0 -0.5774E-05  1  0.2742E-04
   (  1,  9,  4)  (  1,  8,  5)  (  1, 20, 12)  (  1,  9,  4)  (  1,  9,  4)
  0 -0.2114E-04  0 -0.1464E-04  0 -0.4905E-05  1  0.4948E-05
   (  1,  9,  4)  (  1,  8,  5)  (  1, 20, 12)  (  1, 17, 10)

 MAXIMUM RESIDUAL FOR EACH ITERATION (1 INDICATES THE FIRST INNER ITERATION):

    RESIDUAL       RESIDUAL       RESIDUAL       RESIDUAL       RESIDUAL    
   LAYER,ROW,COL  LAYER,ROW,COL  LAYER,ROW,COL  LAYER,ROW,COL  LAYER,ROW,COL
 ---------------------------------------------------------------------------
  1  -3925.      0  -3122.      0  -1403.      0  -603.1      0  -473.5    
   (  1, 39, 12)  (  1, 39, 12)  (  1, 39, 14)  (  1, 39, 15)  (  1, 39, 15)
  0  -346.4      0  -248.7      0  -152.5      0  -83.06      0  -48.41    
   (  1, 39, 15)  (  1, 39, 15)  (  1, 39, 15)  (  1, 39, 15)  (  1, 39, 15)
  0  -35.49      0  -22.27      0  -9.305      0  -3.313      0  -1.127    
   (  1, 39, 15)  (  1, 39, 15)  (  1, 39, 15)  (  1, 39, 15)  (  1, 39, 15)
  0 -0.3795      0 -0.1196      0 -0.4919E-01  0 -0.3270E-01  0 -0.1586E-01
   (  1, 39, 15)  (  1, 39, 15)  (  1, 39, 15)  (  1, 38, 15)  (  1, 38, 15)
  0 -0.7202E-02  0 -0.3059E-02  1  -803.0      0  -712.6      0  -368.4    
   (  1, 38, 15)  (  1, 38, 15)  (  1, 39, 12)  (  1, 39, 12)  (  1, 39, 13)
  0  -132.0      0  -105.1      0  -77.57      0  -55.24      0  -35.19    
   (  1, 39,  7)  (  1, 39, 15)  (  1, 39, 15)  (  1, 39, 15)  (  1, 39, 15)
  0  -22.03      0  -13.21      0  -6.608      0  -5.320      0  -2.627    
   (  1, 39, 15)  (  1, 39, 15)  (  1, 39, 15)  (  1, 39, 15)  (  1, 39, 15)
  0  -1.085      0 -0.4524      0 -0.1696      0 -0.5470E-01  0 -0.1759E-01
   (  1, 39, 15)  (  1, 39, 15)  (  1, 39, 15)  (  1, 39, 15)  (  1, 39, 15)
  0 -0.6796E-02  0 -0.4796E-02  0 -0.1934E-02  0 -0.7894E-03  1   345.2    
   (  1, 39, 15)  (  1, 38, 15)  (  1, 38, 15)  (  1, 38, 15)  (  1, 38, 15)
  0  -156.5      0  -101.6      0  -44.26      0  -22.56      0  -17.00    
   (  1, 39, 12)  (  1, 39, 12)  (  1, 39, 14)  (  1, 39, 15)  (  1, 39, 15)
  0  -12.38      0  -8.242      0  -5.523      0  -3.480      0  -3.095    
   (  1, 39, 15)  (  1, 39, 15)  (  1, 39, 15)  (  1, 39, 15)  (  1, 39, 15)
  0  -1.622      0 -0.8157      0 -0.4305      0 -0.1912      0 -0.7613E-01
   (  1, 39, 15)  (  1, 39, 15)  (  1, 39, 15)  (  1, 39, 15)  (  1, 39, 15)
  0 -0.2764E-01  0 -0.1072E-01  0 -0.8094E-02  0 -0.3609E-02  0 -0.1038E-02
   (  1, 39, 15)  (  1, 39, 15)  (  1, 39, 15)  (  1, 39, 15)  (  1, 39, 15)
  1   71.42      0  -29.18      0  -23.42      0  -13.15      0  -6.383    
   (  1, 38, 15)  (  1, 39, 12)  (  1, 39, 12)  (  1, 39, 14)  (  1, 39, 14)
  0  -4.418      0  -3.317      0  -2.271      0  -1.598      0  -1.042    
   (  1, 39, 15)  (  1, 39, 15)  (  1, 39, 15)  (  1, 39, 15)  (  1, 39, 15)
  0 -0.5820      0 -0.4659      0 -0.2813      0 -0.1513      0 -0.7657E-01
   (  1, 39, 15)  (  1, 39, 15)  (  1, 39, 15)  (  1, 39, 15)  (  1, 39, 15)
  0 -0.3747E-01  0 -0.1568E-01  0 -0.6340E-02  0 -0.2573E-02  1   46.05    
   (  1, 39, 15)  (  1, 39, 15)  (  1, 39, 15)  (  1, 39, 15)  (  1, 38, 15)
  0   20.93      0   8.713      0  -3.615      0  -2.374      0  -1.286    
   (  1, 38, 15)  (  1, 38, 15)  (  1, 39, 14)  (  1, 39, 14)  (  1, 39, 15)
  0 -0.9750      0 -0.6495      0 -0.4178      0 -0.3044      0 -0.2541    
   (  1, 39, 15)  (  1, 39, 15)  (  1, 39, 15)  (  1, 39, 15)  (  1, 39, 15)
  0 -0.1744      0 -0.9119E-01  0 -0.4697E-01  0 -0.2520E-01  0 -0.1264E-01
   (  1, 39, 15)  (  1, 39, 15)  (  1, 39, 15)  (  1, 39, 15)  (  1, 39, 15)
  0 -0.5634E-02  0 -0.2699E-02  1   20.31      0   8.682      0   3.524    
   (  1, 39, 15)  (  1, 39, 15)  (  1, 38, 15)  (  1, 38, 15)  (  1, 38, 15)
  0  0.9962      0 -0.7363      0 -0.4155      0 -0.2932      0 -0.2035    
   (  1, 38, 15)  (  1, 39, 14)  (  1, 39, 14)  (  1, 39, 15)  (  1, 39, 15)
  0 -0.1416      0 -0.9594E-01  0 -0.8603E-01  0 -0.5484E-01  0 -0.2919E-01
   (  1, 39, 15)  (  1, 39, 15)  (  1, 39, 15)  (  1, 39, 15)  (  1, 39, 15)
  0 -0.1374E-01  0 -0.7435E-02  0 -0.3673E-02  1   5.491      0   3.232    
   (  1, 39, 15)  (  1, 39, 15)  (  1, 39, 15)  (  1, 38, 15)  (  1, 38, 15)
  0   1.322      0  0.3371      0 -0.2117      0 -0.1258      0 -0.8790E-01
   (  1, 38, 15)  (  1, 38, 15)  (  1, 39, 14)  (  1, 39, 14)  (  1, 39, 15)
  0 -0.6207E-01  0 -0.4395E-01  0 -0.2871E-01  0 -0.2524E-01  0 -0.1681E-01
   (  1, 39, 15)  (  1, 39, 15)  (  1, 39, 15)  (  1, 39, 15)  (  1, 39, 15)
  0 -0.9165E-02  0 -0.4064E-02  0 -0.1905E-02  1   1.435      0  0.6115    
   (  1, 39, 15)  (  1, 39, 15)  (  1, 39, 15)  (  1, 38, 15)  (  1, 38, 15)
  0  0.4140      0  0.1130      0 -0.5949E-01  0 -0.4096E-01  0 -0.2670E-01
   (  1, 38, 15)  (  1, 38, 15)  (  1, 39, 14)  (  1, 39, 14)  (  1, 39, 15)
  0 -0.1892E-01  0 -0.1338E-01  0 -0.8572E-02  0 -0.5695E-02  0 -0.5043E-02
   (  1, 39, 15)  (  1, 39, 15)  (  1, 39, 15)  (  1, 39, 15)  (  1, 39, 15)
  0 -0.2840E-02  1  0.5662      0  0.3796      0  0.1389      0  0.3765E-01
   (  1, 39, 15)  (  1, 38, 15)  (  1, 38, 15)  (  1, 38, 15)  (  1, 38, 15)
  0 -0.1664E-01  0 -0.1318E-01  0 -0.8286E-02  0 -0.5795E-02  0 -0.4038E-02
   (  1, 39, 14)  (  1, 39, 14)  (  1, 39, 15)  (  1, 39, 15)  (  1, 39, 15)
  0 -0.2560E-02  0 -0.1635E-02  1  0.2486      0  0.1276      0  0.4156E-01
   (  1, 39, 15)  (  1, 39, 15)  (  1, 39, 15)  (  1, 38, 15)  (  1, 38, 15)
  0  0.1211E-01  0 -0.4663E-02  0 -0.3717E-02  0 -0.2481E-02  0 -0.1713E-02
   (  1, 38, 15)  (  1, 39, 14)  (  1, 39, 14)  (  1, 39, 15)  (  1, 39, 15)
  0 -0.1114E-02  1  0.9230E-01  0  0.4196E-01  0  0.1300E-01  0  0.3676E-02
   (  1, 39, 15)  (  1, 39, 15)  (  1, 39, 15)  (  1, 38, 15)  (  1, 38, 15)
  0  0.1337E-02  0 -0.1035E-02  0 -0.6797E-03  1  0.2782E-01  0  0.1373E-01
   (  1,  2, 14)  (  1, 39, 14)  (  1, 39, 15)  (  1, 39, 15)  (  1, 39, 15)
  0  0.4413E-02  0  0.1010E-02  0  0.4118E-03  0 -0.2849E-03  1  0.8019E-02
   (  1, 39, 15)  (  1, 38, 15)  (  1,  2, 14)  (  1, 39, 14)  (  1, 39, 15)
  0  0.4608E-02  0  0.1937E-02  0  0.2516E-03  0  0.1120E-03  1  0.2417E-02
   (  1, 39, 15)  (  1, 39, 15)  (  1, 22, 15)  (  1,  2, 14)  (  1, 39, 15)
  0  0.1609E-02  0  0.7880E-03  0  0.1012E-03  1  0.1469E-02
   (  1, 39, 15)  (  1, 39, 15)  (  1, 22, 15)  (  1, 39, 15)



 OUTPUT CONTROL FOR STRESS PERIOD    1   TIME STEP    1
    SAVE HEAD FOR ALL LAYERS
    SAVE BUDGET
 UBDSV2 SAVING "   CONSTANT HEAD" ON UNIT  53 AT TIME STEP  1, STRESS PERIOD   1
 UBDSV1 SAVING "FLOW RIGHT FACE " ON UNIT  53 AT TIME STEP  1, STRESS PERIOD   1
 UBDSV1 SAVING "FLOW FRONT FACE " ON UNIT  53 AT TIME STEP  1, STRESS PERIOD   1

 HEAD WILL BE SAVED ON UNIT   51 AT END OF TIME STEP    1, STRESS PERIOD    1
1
  VOLUMETRIC BUDGET FOR ENTIRE MODEL AT END OF TIME STEP    1, STRESS PERIOD   1
  ------------------------------------------------------------------------------

     CUMULATIVE VOLUMES      L**3       RATES FOR THIS TIME STEP      L**3/T
     ------------------                 ------------------------

           IN:                                      IN:
           ---                                      ---
             STORAGE =           0.0000               STORAGE =           0.0000
       CONSTANT HEAD =           0.0000         CONSTANT HEAD =           0.0000
               WELLS =         600.0000                 WELLS =         600.0000
       RIVER LEAKAGE =          66.8139         RIVER LEAKAGE =          66.8139
            RECHARGE =        6004.7998              RECHARGE =        6004.7998

            TOTAL IN =        6671.6138              TOTAL IN =        6671.6138

          OUT:                                     OUT:
          ----                                     ----
             STORAGE =           0.0000               STORAGE =           0.0000
       CONSTANT HEAD =         491.7390         CONSTANT HEAD =         491.7390
               WELLS =           0.0000                 WELLS =           0.0000
       RIVER LEAKAGE =        6179.9980         RIVER LEAKAGE =        6179.9980
            RECHARGE =           0.0000              RECHARGE =           0.0000

           TOTAL OUT =        6671.7373             TOTAL OUT =        6671.7373

            IN - OUT =          -0.1235              IN - OUT =          -0.1235

 PERCENT DISCREPANCY =          -0.00     PERCENT DISCREPANCY =          -0.00






         TIME SUMMARY AT END OF TIME STEP    1 IN STRESS PERIOD    1
                    SECONDS     MINUTES      HOURS       DAYS        YEARS
                    -----------------------------------------------------------
   TIME STEP LENGTH  86400.      1440.0      24.000      1.0000     2.73785E-03
 STRESS PERIOD TIME  86400.      1440.0      24.000      1.0000     2.73785E-03
         TOTAL TIME  86400.      1440.0      24.000      1.0000     2.73785E-03
1
1
                            STRESS PERIOD NO.    2, LENGTH =   1825.000    
                            -----------------------------------------------

                              NUMBER OF TIME STEPS =     1

                               MULTIPLIER FOR DELT =     1.000

                            INITIAL TIME STEP SIZE =   1825.000    

 WELL NO.  LAYER   ROW   COL   STRESS RATE         
 --------------------------------------------------
      1      1      9     16       100.0    
      2      1     11     13       100.0    
      3      1     20     14       100.0    
      4      1     26     10       100.0    
      5      1     29      6       100.0    
      6      1     34     12       100.0    

      6 WELLS

 REUSING NON-PARAMETER RIVER REACHES FROM LAST STRESS PERIOD

     40 RIVER REACHES

 OPENING FILE ON UNIT   99:
 rech_1.ref                                                                                                                                                                                              



                           RECHARGE
 READING ON UNIT   99 WITH FORMAT: (20G15.6)           

 SOLVING FOR HEAD 


    10 CALLS TO PCG ROUTINE FOR TIME STEP   1 IN STRESS PERIOD    2
    63 TOTAL ITERATIONS

 MAXIMUM HEAD CHANGE FOR EACH ITERATION (1 INDICATES THE FIRST INNER ITERATION):

    HEAD CHANGE    HEAD CHANGE    HEAD CHANGE    HEAD CHANGE    HEAD CHANGE 
   LAYER,ROW,COL  LAYER,ROW,COL  LAYER,ROW,COL  LAYER,ROW,COL  LAYER,ROW,COL
 ---------------------------------------------------------------------------
  1 -0.7515      0 -0.1295      0 -0.3422E-01  0 -0.1275E-01  0 -0.6785E-02
   (  1,  9,  4)  (  1,  1, 12)  (  1,  2,  6)  (  1,  8,  5)  (  1,  9,  4)
  0  0.2041E-02  0  0.5152E-03  0  0.1790E-03  0 -0.5668E-04  0  0.2077E-04
   (  1,  9,  4)  (  1, 31,  6)  (  1, 26,  7)  (  1,  4,  8)  (  1, 32,  1)
  0  0.4375E-05  1 -0.1758      0 -0.3279E-01  0 -0.1372E-01  0  0.5006E-02
   (  1, 27,  5)  (  1,  3,  7)  (  1,  8,  5)  (  1,  2,  6)  (  1,  9,  4)
  0 -0.2250E-02  0 -0.4430E-03  0  0.1263E-03  0  0.4760E-04  0  0.1545E-04
   (  1,  9,  4)  (  1,  8,  5)  (  1, 30,  4)  (  1, 28,  7)  (  1, 31,  5)
  0  0.5144E-05  1 -0.5095E-01  0 -0.1374E-01  0 -0.5656E-02  0  0.2179E-02
   (  1, 33,  2)  (  1,  6, 10)  (  1,  8,  5)  (  1,  9,  4)  (  1,  9,  4)
  0 -0.5749E-03  0 -0.1546E-03  0  0.4135E-04  0  0.1517E-04  0 -0.4327E-05
   (  1,  2, 11)  (  1,  8,  5)  (  1, 25,  8)  (  1, 29,  7)  (  1,  4,  8)
  1 -0.1445E-01  0 -0.4691E-02  0 -0.2329E-02  0  0.6640E-03  0 -0.1868E-03
   (  1,  5, 10)  (  1,  8,  5)  (  1,  9,  4)  (  1,  9,  4)  (  1,  2, 12)
  0  0.4843E-04  0  0.1324E-04  0  0.4280E-05  1 -0.4015E-02  0 -0.1432E-02
   (  1, 18,  9)  (  1, 35,  5)  (  1, 30,  7)  (  1,  6, 11)  (  1,  8,  5)
  0 -0.7634E-03  0  0.1803E-03  0 -0.5735E-04  0  0.1738E-04  0  0.4515E-05
   (  1,  9,  4)  (  1,  9,  4)  (  1,  2, 12)  (  1, 18,  9)  (  1, 37,  5)
  1 -0.1098E-02  0 -0.4044E-03  0 -0.2261E-03  0  0.4913E-04  0 -0.1602E-04
   (  1,  6, 11)  (  1,  8,  5)  (  1,  9,  4)  (  1,  9,  4)  (  1,  2, 12)
  0  0.5746E-05  1 -0.2900E-03  0 -0.1084E-03  0 -0.6388E-04  0  0.1416E-04
   (  1, 18,  9)  (  1,  6, 11)  (  1,  8,  5)  (  1,  9,  4)  (  1,  9,  4)
  0 -0.4124E-05  1 -0.7820E-04  0 -0.2613E-04  0 -0.1783E-04  0 -0.4622E-05
   (  1,  2, 12)  (  1,  6, 13)  (  1,  8,  5)  (  1,  9,  4)  (  1,  8,  5)
  1 -0.2172E-04  0  0.8523E-05  1 -0.8228E-05
   (  1, 22, 13)  (  1,  9,  4)  (  1,  9,  4)

 MAXIMUM RESIDUAL FOR EACH ITERATION (1 INDICATES THE FIRST INNER ITERATION):

    RESIDUAL       RESIDUAL       RESIDUAL       RESIDUAL       RESIDUAL    
   LAYER,ROW,COL  LAYER,ROW,COL  LAYER,ROW,COL  LAYER,ROW,COL  LAYER,ROW,COL
 ---------------------------------------------------------------------------
  1   7.347      0   4.011      0   1.790      0  0.6852      0  0.2388    
   (  1,  5, 15)  (  1,  1, 15)  (  1,  1, 15)  (  1,  1, 15)  (  1,  1, 15)
  0  0.8089E-01  0  0.3462E-01  0  0.1326E-01  0  0.3799E-02  0  0.1132E-02
   (  1,  1, 15)  (  1,  1, 15)  (  1,  1, 15)  (  1,  1, 15)  (  1,  1, 15)
  0  0.4039E-03  1   2.699      0   1.347      0  0.5884      0  0.2729    
   (  1, 39, 14)  (  1,  5, 15)  (  1,  1, 15)  (  1,  1, 15)  (  1,  1, 15)
  0  0.7626E-01  0  0.2477E-01  0  0.9757E-02  0  0.3394E-02  0  0.1074E-02
   (  1,  1, 15)  (  1,  1, 15)  (  1,  1, 15)  (  1,  1, 15)  (  1,  1, 15)
  0  0.3211E-03  1  0.9457      0  0.4830      0  0.2104      0  0.9483E-01
   (  1,  1, 15)  (  1,  5, 15)  (  1,  2, 15)  (  1,  1, 15)  (  1,  1, 15)
  0  0.2918E-01  0  0.8883E-02  0  0.3395E-02  0  0.1152E-02  0  0.3894E-03
   (  1,  1, 15)  (  1,  1, 15)  (  1,  1, 15)  (  1,  1, 15)  (  1,  1, 15)
  1  0.3213      0  0.1727      0  0.7539E-01  0  0.2991E-01  0  0.1039E-01
   (  1,  5, 15)  (  1,  2, 15)  (  1,  1, 15)  (  1,  1, 15)  (  1,  1, 15)
  0  0.3116E-02  0  0.1124E-02  0  0.3762E-03  1  0.1070      0  0.5920E-01
   (  1,  1, 15)  (  1,  1, 15)  (  1,  1, 15)  (  1,  5, 15)  (  1,  2, 15)
  0  0.2590E-01  0  0.9159E-02  0  0.3341E-02  0  0.1011E-02  0  0.3394E-03
   (  1,  1, 15)  (  1,  1, 15)  (  1,  1, 15)  (  1,  1, 15)  (  1,  1, 15)
  1  0.3513E-01  0  0.1961E-01  0  0.8469E-02  0  0.2724E-02  0  0.9977E-03
   (  1,  5, 15)  (  1,  2, 15)  (  1,  1, 15)  (  1,  1, 15)  (  1,  1, 15)
  0  0.3040E-03  1  0.1143E-01  0  0.6355E-02  0  0.2647E-02  0  0.7919E-03
   (  1,  1, 15)  (  1,  5, 15)  (  1,  4, 15)  (  1,  1, 15)  (  1,  5, 15)
  0  0.2793E-03  1  0.3731E-02  0  0.2051E-02  0  0.7990E-03  0  0.2430E-03
   (  1,  1, 15)  (  1,  5, 15)  (  1, 30, 15)  (  1, 30, 15)  (  1,  5, 15)
  1  0.1247E-02  0  0.6599E-03  1  0.5828E-03
   (  1,  5, 15)  (  1, 30, 15)  (  1,  5, 15)



 OUTPUT CONTROL FOR STRESS PERIOD    2   TIME STEP    1
    SAVE HEAD FOR ALL LAYERS
    SAVE BUDGET
 UBDSV1 SAVING "         STORAGE" ON UNIT  53 AT TIME STEP  1, STRESS PERIOD   2
 UBDSV2 SAVING "   CONSTANT HEAD" ON UNIT  53 AT TIME STEP  1, STRESS PERIOD   2
 UBDSV1 SAVING "FLOW RIGHT FACE " ON UNIT  53 AT TIME STEP  1, STRESS PERIOD   2
 UBDSV1 SAVING "FLOW FRONT FACE " ON UNIT  53 AT TIME STEP  1, STRESS PERIOD   2

 HEAD WILL BE SAVED ON UNIT   51 AT END OF TIME STEP    1, STRESS PERIOD    2
1
  VOLUMETRIC BUDGET FOR ENTIRE MODEL AT END OF TIME STEP    1, STRESS PERIOD   2
  ------------------------------------------------------------------------------

     CUMULATIVE VOLUMES      L**3       RATES FOR THIS TIME STEP      L**3/T
     ------------------                 ------------------------

           IN:                                      IN:
           ---                                      ---
             STORAGE =     2645503.2500               STORAGE =        1449.5908
       CONSTANT HEAD =           0.0000         CONSTANT HEAD =           0.0000
               WELLS =     1095600.0000                 WELLS =         600.0000
       RIVER LEAKAGE =      191442.5938         RIVER LEAKAGE =         104.8634
            RECHARGE =     5485385.0000              RECHARGE =        3002.3999

            TOTAL IN =     9417931.0000              TOTAL IN =        5156.8545

          OUT:                                     OUT:
          ----                                     ----
             STORAGE =           0.0000               STORAGE =           0.0000
       CONSTANT HEAD =      668084.3125         CONSTANT HEAD =         365.8041
               WELLS =           0.0000                 WELLS =           0.0000
       RIVER LEAKAGE =     8749939.0000         RIVER LEAKAGE =        4791.1006
            RECHARGE =           0.0000              RECHARGE =           0.0000

           TOTAL OUT =     9418023.0000             TOTAL OUT =        5156.9048

            IN - OUT =         -92.0000              IN - OUT =      -5.0293E-02

 PERCENT DISCREPANCY =          -0.00     PERCENT DISCREPANCY =          -0.00






         TIME SUMMARY AT END OF TIME STEP    1 IN STRESS PERIOD    2
                    SECONDS     MINUTES      HOURS       DAYS        YEARS
                    -----------------------------------------------------------
   TIME STEP LENGTH 1.57680E+08 2.62800E+06  43800.      1825.0      4.9966    
 STRESS PERIOD TIME 1.57680E+08 2.62800E+06  43800.      1825.0      4.9966    
         TOTAL TIME 1.57766E+08 2.62944E+06  43824.      1826.0      4.9993    
1
1
                            STRESS PERIOD NO.    3, LENGTH =   1.000000    
                            -----------------------------------------------

                              NUMBER OF TIME STEPS =     1

                               MULTIPLIER FOR DELT =     1.000

                            INITIAL TIME STEP SIZE =   1.000000    

 WELL NO.  LAYER   ROW   COL   STRESS RATE         
 --------------------------------------------------
      1      1      9     16       100.0    
      2      1     11     13       100.0    
      3      1     20     14       100.0    
      4      1     26     10       100.0    
      5      1     29      6       100.0    
      6      1     34     12       100.0    

      6 WELLS

 REUSING NON-PARAMETER RIVER REACHES FROM LAST STRESS PERIOD

     40 RIVER REACHES

 OPENING FILE ON UNIT   99:
 rech_2.ref                                                                                                                                                                                              



                           RECHARGE
 READING ON UNIT   99 WITH FORMAT: (20G15.6)           

 SOLVING FOR HEAD 


    11 CALLS TO PCG ROUTINE FOR TIME STEP   1 IN STRESS PERIOD    3
   111 TOTAL ITERATIONS

 MAXIMUM HEAD CHANGE FOR EACH ITERATION (1 INDICATES THE FIRST INNER ITERATION):

    HEAD CHANGE    HEAD CHANGE    HEAD CHANGE    HEAD CHANGE    HEAD CHANGE 
   LAYER,ROW,COL  LAYER,ROW,COL  LAYER,ROW,COL  LAYER,ROW,COL  LAYER,ROW,COL
 ---------------------------------------------------------------------------
  1  -2.234      0  -2.263      0  -1.172      0 -0.4387      0 -0.2589    
   (  1,  9,  4)  (  1,  8,  5)  (  1, 32,  1)  (  1,  1,  9)  (  1,  1,  4)
  0 -0.9167E-01  0 -0.4459E-01  0 -0.2432E-01  0  0.1098E-01  0 -0.5346E-02
   (  1,  3,  1)  (  1, 25,  1)  (  1,  2,  1)  (  1, 33,  2)  (  1,  8,  5)
  0 -0.7757E-02  0  0.3069E-02  0  0.8093E-03  0 -0.5698E-03  0 -0.1954E-03
   (  1,  9,  4)  (  1, 30,  3)  (  1, 27,  5)  (  1,  6,  2)  (  1, 18,  2)
  0 -0.8729E-04  0  0.5061E-04  0  0.3535E-04  0 -0.2215E-04  0 -0.6016E-05
   (  1, 37,  5)  (  1, 31,  1)  (  1,  9,  4)  (  1,  9,  1)  (  1, 39, 14)
  1 -0.3290      0 -0.2537      0 -0.1073      0 -0.4834E-01  0 -0.3155E-01
   (  1,  4,  6)  (  1,  9,  4)  (  1, 34,  3)  (  1,  1, 11)  (  1, 20,  4)
  0 -0.1182E-01  0 -0.6016E-02  0 -0.3372E-02  0 -0.1572E-02  0 -0.1449E-02
   (  1,  7,  3)  (  1,  2,  9)  (  1, 10,  1)  (  1,  3,  8)  (  1,  9,  1)
  0  0.7292E-03  0  0.4752E-03  0 -0.2407E-03  0 -0.9606E-04  0  0.2999E-04
   (  1,  9,  4)  (  1,  8,  5)  (  1,  7,  3)  (  1, 11,  1)  (  1, 23, 12)
  0 -0.1663E-04  0  0.5782E-05  1  0.9969E-01  0  0.5750E-01  0 -0.6255E-01
   (  1,  4,  5)  (  1, 31,  2)  (  1,  9,  4)  (  1,  8,  5)  (  1,  8,  5)
  0 -0.1397E-01  0  0.7389E-02  0  0.4998E-02  0  0.3019E-02  0  0.1248E-02
   (  1, 37,  5)  (  1, 26,  1)  (  1, 17,  3)  (  1, 21,  2)  (  1,  2,  1)
  0  0.6337E-03  0 -0.4314E-03  0  0.3264E-03  0  0.1137E-03  0  0.4206E-04
   (  1, 17,  4)  (  1, 10,  1)  (  1,  9,  4)  (  1,  1,  1)  (  1,  2,  9)
  0  0.2694E-04  0  0.8654E-05  1  0.3637E-01  0  0.1864E-01  0 -0.1390E-01
   (  1,  1,  2)  (  1,  4,  1)  (  1,  9,  4)  (  1,  8,  5)  (  1,  8,  5)
  0  0.3760E-02  0  0.3747E-02  0  0.1710E-02  0  0.8927E-03  0  0.4023E-03
   (  1,  1,  8)  (  1,  1,  2)  (  1, 19,  4)  (  1, 25,  3)  (  1,  2,  1)
  0  0.1276E-03  0 -0.1275E-03  0  0.1051E-03  0  0.3430E-04  0  0.1072E-04
   (  1, 25,  3)  (  1, 10,  2)  (  1,  9,  4)  (  1, 20,  3)  (  1,  5,  1)
  0  0.5383E-05  1  0.8720E-02  0 -0.4219E-02  0  0.2338E-02  0  0.1257E-02
   (  1,  1,  2)  (  1,  9,  4)  (  1,  9,  4)  (  1,  9,  4)  (  1,  1,  8)
  0  0.1231E-02  0  0.3864E-03  0  0.2337E-03  0  0.1015E-03  0 -0.4009E-04
   (  1,  1,  2)  (  1, 21,  4)  (  1, 26,  1)  (  1, 16,  4)  (  1, 12,  1)
  0 -0.1963E-04  0 -0.1682E-04  0  0.9872E-05  1  0.1642E-02  0  0.2480E-02
   (  1, 27,  6)  (  1,  9,  4)  (  1,  9,  1)  (  1,  8,  5)  (  1,  9,  4)
  0 -0.8544E-03  0  0.3134E-03  0  0.3059E-03  0  0.1315E-03  0  0.5244E-04
   (  1,  9,  4)  (  1, 17,  4)  (  1,  2,  3)  (  1, 27,  1)  (  1, 20,  4)
  0  0.1857E-04  0 -0.1189E-04  0 -0.5629E-05  1 -0.3861E-03  0  0.5924E-03
   (  1, 26,  2)  (  1, 15,  2)  (  1,  8,  6)  (  1,  9,  4)  (  1,  9,  4)
  0  0.1818E-03  0  0.8784E-04  0  0.6995E-04  0  0.3764E-04  0  0.1877E-04
   (  1, 32,  1)  (  1, 26,  4)  (  1,  3,  3)  (  1, 28,  2)  (  1,  5,  1)
  0 -0.6064E-05  1 -0.1356E-03  0  0.1040E-03  0  0.4638E-04  0  0.2440E-04
   (  1,  8,  5)  (  1,  9,  4)  (  1,  9,  4)  (  1, 33,  2)  (  1, 29,  6)
  0  0.1707E-04  0  0.1077E-04  0  0.3785E-05  1 -0.4452E-04  0 -0.2383E-04
   (  1,  3,  3)  (  1, 30,  3)  (  1, 29,  8)  (  1,  9,  4)  (  1,  8,  5)
  0  0.2204E-04  0 -0.1083E-04  0  0.4564E-05  1 -0.1433E-04  0 -0.8425E-05
   (  1,  8,  5)  (  1, 10,  4)  (  1,  8,  7)  (  1,  9,  4)  (  1,  8,  5)
  1  0.5716E-05
   (  1,  8,  5)

 MAXIMUM RESIDUAL FOR EACH ITERATION (1 INDICATES THE FIRST INNER ITERATION):

    RESIDUAL       RESIDUAL       RESIDUAL       RESIDUAL       RESIDUAL    
   LAYER,ROW,COL  LAYER,ROW,COL  LAYER,ROW,COL  LAYER,ROW,COL  LAYER,ROW,COL
 ---------------------------------------------------------------------------
  1  -65.39      0  -20.22      0   18.80      0   13.55      0   9.705    
   (  1,  9,  4)  (  1,  8,  6)  (  1,  1,  9)  (  1,  1, 13)  (  1,  2, 15)
  0   6.996      0   4.636      0   2.113      0   1.000      0  0.7430    
   (  1,  1, 15)  (  1,  1, 15)  (  1,  1, 15)  (  1,  1, 15)  (  1,  1, 15)
  0  0.5100      0  0.2435      0  0.1178      0  0.5712E-01  0  0.2756E-01
   (  1,  1, 15)  (  1,  1, 15)  (  1,  1, 15)  (  1,  1, 15)  (  1,  1, 15)
  0  0.1263E-01  0  0.5229E-02  0  0.3133E-02  0  0.2088E-02  0  0.8771E-03
   (  1,  1, 15)  (  1,  1, 15)  (  1,  1, 15)  (  1,  1, 15)  (  1,  1, 15)
  1   6.833      0   3.525      0   3.267      0   2.740      0   1.922    
   (  1,  9,  4)  (  1, 30, 15)  (  1,  5, 15)  (  1,  4, 15)  (  1,  1, 15)
  0   1.353      0  0.7915      0  0.3506      0  0.1513      0  0.8489E-01
   (  1,  1, 15)  (  1,  1, 15)  (  1,  1, 15)  (  1,  1, 15)  (  1,  1, 15)
  0  0.6554E-01  0  0.4212E-01  0  0.2148E-01  0  0.1007E-01  0  0.4309E-02
   (  1,  1, 15)  (  1,  1, 15)  (  1,  1, 15)  (  1,  1, 15)  (  1,  1, 15)
  0  0.1883E-02  0  0.8118E-03  1  -3.275      0  -1.658      0   1.010    
   (  1,  1, 15)  (  1,  1, 15)  (  1, 29,  6)  (  1, 29,  6)  (  1, 28, 15)
  0  0.6591      0  0.4533      0  0.2964      0  0.1447      0  0.6587E-01
   (  1,  2, 15)  (  1,  1, 15)  (  1,  1, 15)  (  1,  1, 15)  (  1,  1, 15)
  0  0.3058E-01  0  0.1676E-01  0  0.1167E-01  0  0.5727E-02  0 -0.2906E-02
   (  1,  1, 15)  (  1,  1, 15)  (  1, 26, 15)  (  1, 26, 15)  (  1, 39, 14)
  0  0.1259E-02  0  0.5550E-03  1  -1.058      0 -0.6367      0  0.3045    
   (  1, 26, 15)  (  1,  3, 15)  (  1, 29,  6)  (  1, 29,  6)  (  1, 30, 15)
  0  0.1911      0  0.1029      0  0.6334E-01  0  0.2979E-01  0  0.1323E-01
   (  1, 30, 15)  (  1, 30, 15)  (  1,  5, 15)  (  1,  5, 15)  (  1,  2, 13)
  0  0.7606E-02  0  0.5259E-02  0  0.3474E-02  0  0.1643E-02  0  0.8293E-03
   (  1, 28, 15)  (  1, 28, 15)  (  1, 27, 15)  (  1, 27, 15)  (  1, 27, 15)
  0  0.3963E-03  1 -0.2245      0  0.9543E-01  0  0.9035E-01  0  0.6133E-01
   (  1,  4, 15)  (  1, 29,  6)  (  1, 30, 15)  (  1, 30, 15)  (  1, 30, 15)
  0  0.2914E-01  0  0.1624E-01  0  0.8786E-02  0  0.3779E-02  0  0.1980E-02
   (  1,  6, 15)  (  1,  6, 15)  (  1,  5, 15)  (  1,  5, 15)  (  1, 28, 15)
  0  0.1092E-02  0  0.7051E-03  0  0.5354E-03  1 -0.8030E-01  0 -0.4111E-01
   (  1, 28, 15)  (  1, 28, 15)  (  1, 28, 15)  (  1, 29,  6)  (  1, 26, 10)
  0  0.2722E-01  0  0.1966E-01  0  0.8904E-02  0  0.4267E-02  0  0.2559E-02
   (  1, 30, 15)  (  1, 30, 15)  (  1,  6, 15)  (  1,  6, 15)  (  1,  6, 15)
  0  0.1248E-02  0  0.6773E-03  0  0.4687E-03  1 -0.2549E-01  0 -0.1029E-01
   (  1,  6, 15)  (  1,  5, 15)  (  1,  5, 15)  (  1, 26, 10)  (  1, 26, 10)
  0  0.8142E-02  0  0.6171E-02  0  0.2900E-02  0  0.1599E-02  0  0.8503E-03
   (  1, 30, 15)  (  1, 30, 15)  (  1,  6, 15)  (  1,  6, 15)  (  1,  6, 15)
  0  0.4177E-03  1 -0.7422E-02  0  0.3196E-02  0  0.2556E-02  0  0.1948E-02
   (  1,  6, 15)  (  1, 26, 10)  (  1, 30, 15)  (  1, 30, 15)  (  1, 30, 15)
  0  0.9220E-03  0  0.5001E-03  0  0.2363E-03  1 -0.2067E-02  0 -0.1127E-02
   (  1, 34, 15)  (  1, 34, 15)  (  1, 34, 15)  (  1, 34, 12)  (  1,  8,  8)
  0  0.8489E-03  0  0.6197E-03  0  0.2982E-03  1 -0.6187E-03  0  0.4608E-03
   (  1, 30, 15)  (  1, 30, 15)  (  1, 34, 15)  (  1, 34, 12)  (  1, 31, 15)
  1  0.4432E-03
   (  1, 31, 15)



 OUTPUT CONTROL FOR STRESS PERIOD    3   TIME STEP    1
    SAVE HEAD FOR ALL LAYERS
    SAVE BUDGET
 UBDSV2 SAVING "   CONSTANT HEAD" ON UNIT  53 AT TIME STEP  1, STRESS PERIOD   3
 UBDSV1 SAVING "FLOW RIGHT FACE " ON UNIT  53 AT TIME STEP  1, STRESS PERIOD   3
 UBDSV1 SAVING "FLOW FRONT FACE " ON UNIT  53 AT TIME STEP  1, STRESS PERIOD   3

 HEAD WILL BE SAVED ON UNIT   51 AT END OF TIME STEP    1, STRESS PERIOD    3
1
  VOLUMETRIC BUDGET FOR ENTIRE MODEL AT END OF TIME STEP    1, STRESS PERIOD   3
  ------------------------------------------------------------------------------

     CUMULATIVE VOLUMES      L**3       RATES FOR THIS TIME STEP      L**3/T
     ------------------                 ------------------------

           IN:                                      IN:
           ---                                      ---
             STORAGE =     2645503.2500               STORAGE =           0.0000
       CONSTANT HEAD =           0.0000         CONSTANT HEAD =           0.0000
               WELLS =     1096200.0000                 WELLS =         600.0000
       RIVER LEAKAGE =      191581.1250         RIVER LEAKAGE =         138.5311
            RECHARGE =     5488387.5000              RECHARGE =        3002.3999

            TOTAL IN =     9421672.0000              TOTAL IN =        3740.9312

          OUT:                                     OUT:
          ----                                     ----
             STORAGE =           0.0000               STORAGE =           0.0000
       CONSTANT HEAD =      668288.8750         CONSTANT HEAD =         204.5580
               WELLS =           0.0000                 WELLS =           0.0000
       RIVER LEAKAGE =     8753475.0000         RIVER LEAKAGE =        3536.3972
            RECHARGE =           0.0000              RECHARGE =           0.0000

           TOTAL OUT =     9421764.0000             TOTAL OUT =        3740.9553

            IN - OUT =         -92.0000              IN - OUT =      -2.4170E-02

 PERCENT DISCREPANCY =          -0.00     PERCENT DISCREPANCY =          -0.00






         TIME SUMMARY AT END OF TIME STEP    1 IN STRESS PERIOD    3
                    SECONDS     MINUTES      HOURS       DAYS        YEARS
                    -----------------------------------------------------------
   TIME STEP LENGTH  86400.      1440.0      24.000      1.0000     2.73785E-03
 STRESS PERIOD TIME  86400.      1440.0      24.000      1.0000     2.73785E-03
         TOTAL TIME 1.57853E+08 2.63088E+06  43848.      1827.0      5.0021    
1

 Run end date and time (yyyy/mm/dd hh:mm:ss): 2016/05/20 10:17:07
 Elapsed run time:  0.017 Seconds

