                                  MODFLOW-NWT-SWR1 
      U.S. GEOLOGICAL SURVEY MODULAR FINITE-DIFFERENCE GROUNDWATER-FLOW MODEL
                            VERSION 1.0.9 07/01/2014
                    BASED ON MODFLOW-2005 VERSION 1.11.00 08/30/2013

 LIST FILE: freyberg.list
                         UNIT    2

 OPENING freyberg.dis
 FILE TYPE:DIS   UNIT   11   STATUS:OLD    
 FORMAT:FORMATTED              ACCESS:SEQUENTIAL          

 OPENING freyberg.upw
 FILE TYPE:LPF   UNIT   31   STATUS:OLD    
 FORMAT:FORMATTED              ACCESS:SEQUENTIAL          

 OPENING freyberg.bas
 FILE TYPE:BAS6   UNIT   13   STATUS:OLD    
 FORMAT:FORMATTED              ACCESS:SEQUENTIAL          

 OPENING freyberg.rch
 FILE TYPE:RCH   UNIT   19   STATUS:OLD    
 FORMAT:FORMATTED              ACCESS:SEQUENTIAL          

 OPENING freyberg.wel
 FILE TYPE:WEL   UNIT   20   STATUS:OLD    
 FORMAT:FORMATTED              ACCESS:SEQUENTIAL          

 OPENING freyberg.riv
 FILE TYPE:RIV   UNIT   18   STATUS:OLD    
 FORMAT:FORMATTED              ACCESS:SEQUENTIAL          

 OPENING freyberg.oc
 FILE TYPE:OC   UNIT   14   STATUS:OLD    
 FORMAT:FORMATTED              ACCESS:SEQUENTIAL          

 OPENING freyberg.hds
 FILE TYPE:DATA   UNIT   51   STATUS:REPLACE
 FORMAT:FORMATTED              ACCESS:SEQUENTIAL          

 OPENING freyberg.ddn
 FILE TYPE:DATA(BINARY)   UNIT   52   STATUS:REPLACE
 FORMAT:UNFORMATTED            ACCESS:STREAM              

 OPENING freyberg.cbc
 FILE TYPE:DATA(BINARY)   UNIT   53   STATUS:REPLACE
 FORMAT:UNFORMATTED            ACCESS:STREAM              

 OPENING freyberg.pcg
 FILE TYPE:PCG   UNIT   32   STATUS:OLD    
 FORMAT:FORMATTED              ACCESS:SEQUENTIAL          

 BAS -- BASIC PACKAGE, VERSION 7, 5/2/2005 INPUT READ FROM UNIT   13

 MODFLOW was compiled using mixed precision
 Precision of REAL variables:           6
 Precision of DOUBLE PRECISION variables:          15

 DISCRETIZATION INPUT DATA READ FROM UNIT   11
 # Discretization file for MODFLOW, generated by Flopy.
    1 LAYERS        40 ROWS        20 COLUMNS
    3 STRESS PERIOD(S) IN SIMULATION
 MODEL TIME UNIT IS DAYS
 MODEL LENGTH UNIT IS METERS
  Confining bed flag for each layer:
   0



                               DELR
 READING ON UNIT   11 WITH FORMAT: (20G15.6)           



                               DELC
 READING ON UNIT   11 WITH FORMAT: (40G15.6)           

 TOP ELEVATION OF LAYER 1 =   35.0000    

 OPENING FILE ON UNIT   99:
 botm.ref                                                                                                                                                                                                



             MODEL LAYER BOTTOM EL. FOR LAYER   1
 READING ON UNIT   99 WITH FORMAT: (10E12.4)           


 STRESS PERIOD     LENGTH       TIME STEPS     MULTIPLIER FOR DELT    SS FLAG
 ----------------------------------------------------------------------------
        1         1.000000          1                    1.000         SS
        2         1825.000          1                    1.000         TR
        3         1.000000          1                    1.000         SS

 COMBINED STEADY-STATE AND TRANSIENT SIMULATION




 # Basic package file for MODFLOW, generated by Flopy.                           
 THE FREE FORMAT OPTION HAS BEEN SELECTED

 OPENING FILE ON UNIT   99:
 ibound.ref                                                                                                                                                                                              



                     BOUNDARY ARRAY FOR LAYER   1
 READING ON UNIT   99 WITH FORMAT: (25I3)              

 AQUIFER HEAD WILL BE SET TO  -999.99     AT ALL NO-FLOW NODES (IBOUND=0).

 OPENING FILE ON UNIT   99:
 strt.ref                                                                                                                                                                                                



                       INITIAL HEAD FOR LAYER   1
 READING ON UNIT   99 WITH FORMAT: (10E12.4)           
 # Output control package file for MODFLOW, generated by Flopy.

 OUTPUT CONTROL IS SPECIFIED ONLY AT TIME STEPS FOR WHICH OUTPUT IS DESIRED
 HEADS WILL BE SAVED WITH FORMAT: (20E15.6)           
 COMPACT CELL-BY-CELL BUDGET FILES WILL BE WRITTEN
 AUXILIARY DATA WILL BE SAVED IN CELL-BY-CELL BUDGET FILES
 HEAD PRINT FORMAT CODE IS   0    DRAWDOWN PRINT FORMAT CODE IS   0
 HEADS WILL BE SAVED ON UNIT   51    DRAWDOWNS WILL BE SAVED ON UNIT   52

 LPF -- LAYER-PROPERTY FLOW PACKAGE, VERSION 7, 5/2/2005
         INPUT READ FROM UNIT   31
 # UPW for MODFLOW-NWT, generated by Flopy.
 CELL-BY-CELL FLOWS WILL BE SAVED ON UNIT   53
 HEAD AT CELLS THAT CONVERT TO DRY= -1.00000E+30
 No named parameters

   LAYER FLAGS:
 LAYER       LAYTYP        LAYAVG         CHANI        LAYVKA        LAYWET
 ---------------------------------------------------------------------------
    1             1             0     1.000E+00             0             0

   INTERPRETATION OF LAYER FLAGS:
                        INTERBLOCK     HORIZONTAL    DATA IN
         LAYER TYPE   TRANSMISSIVITY   ANISOTROPY   ARRAY VKA   WETTABILITY
 LAYER      (LAYTYP)      (LAYAVG)       (CHANI)      (LAYVKA)      (LAYWET)
 ---------------------------------------------------------------------------
    1   CONVERTIBLE      HARMONIC     1.000E+00    VERTICAL K  NON-WETTABLE

 WETTING CAPABILITY IS NOT ACTIVE IN ANY LAYER

 OPENING FILE ON UNIT   99:
 hk_Layer_1.ref                                                                                                                                                                                          



              HYD. COND. ALONG ROWS FOR LAYER   1
 READING ON UNIT   99 WITH FORMAT: (20G15.6)           

      VERTICAL HYD. COND. =   1.00000     FOR LAYER   1

 OPENING FILE ON UNIT   99:
 ss_Layer_1.ref                                                                                                                                                                                          



                   SPECIFIC STORAGE FOR LAYER   1
 READING ON UNIT   99 WITH FORMAT: (20G15.6)           

           SPECIFIC YIELD =  0.134779     FOR LAYER   1

 WEL -- WELL PACKAGE, VERSION 1.0.6, 12/05/2012 INPUT READ FROM UNIT   20
 # Well file for MODFLOW, generated by Flopy.
 No named parameters
 MAXIMUM OF      6 ACTIVE WELLS AT ONE TIME
 No named parameters


     0 Well parameters

 RIV -- RIVER PACKAGE, VERSION 7, 5/2/2005 INPUT READ FROM UNIT   18
 # RIV for MODFLOW, generated by Flopy.
 No named parameters
 MAXIMUM OF     40 ACTIVE RIVER REACHES AT ONE TIME


     0 River parameters

 RCH -- RECHARGE PACKAGE, VERSION 7, 5/2/2005 INPUT READ FROM UNIT   19
 # RCH for MODFLOW, generated by Flopy.
 No named parameters
 OPTION 3 -- RECHARGE TO HIGHEST ACTIVE NODE IN EACH VERTICAL COLUMN


     0 Recharge parameters

 PCG -- CONJUGATE-GRADIENT SOLUTION PACKAGE, VERSION 7, 5/2/2005
 MAXIMUM OF    100 CALLS OF SOLUTION ROUTINE
 MAXIMUM OF     25 INTERNAL ITERATIONS PER CALL TO SOLUTION ROUTINE
 MATRIX PRECONDITIONING TYPE :    1
 IHCOFADD option -- When an active cell is surrounded by dry cells, convert
 the cell to dry only if storage and head-dependent boundary flow are 0.



                                    SOLUTION BY THE CONJUGATE-GRADIENT METHOD
                                   -------------------------------------------
                    MAXIMUM NUMBER OF CALLS TO PCG ROUTINE =      100
                        MAXIMUM ITERATIONS PER CALL TO PCG =       25
                               MATRIX PRECONDITIONING TYPE =        1
        RELAXATION FACTOR (ONLY USED WITH PRECOND. TYPE 1) =    0.10000E+01
 PARAMETER OF POLYNOMIAL PRECOND. = 2 (2) OR IS CALCULATED :        2
                         HEAD CHANGE CRITERION FOR CLOSURE =    0.10000E-04
                     RESIDUAL CHANGE CRITERION FOR CLOSURE =    0.10000E+00
            PCG HEAD AND RESIDUAL CHANGE PRINTOUT INTERVAL =        5
     PRINTING FROM SOLVER IS LIMITED(1) OR SUPPRESSED (>1) =        0
                            STEADY-STATE DAMPING PARAMETER =    0.70000E+00
                               TRANSIENT DAMPING PARAMETER =    0.70000E+00
1
                            STRESS PERIOD NO.    1, LENGTH =   1.000000    
                            -----------------------------------------------

                              NUMBER OF TIME STEPS =     1

                               MULTIPLIER FOR DELT =     1.000

                            INITIAL TIME STEP SIZE =   1.000000    

 WELL NO.  LAYER   ROW   COL   STRESS RATE         
 --------------------------------------------------
      1      1      9     16       101.4    
      2      1     11     13       95.62    
      3      1     20     14       104.7    
      4      1     26     10       97.04    
      5      1     29      6       99.73    
      6      1     34     12       100.5    

      6 WELLS

 REACH NO.  LAYER   ROW   COL     STAGE      CONDUCTANCE     BOTTOM EL.         
 -------------------------------------------------------------------------------
      1      1      1     15       20.10           2513.           20.00    
      2      1      2     15       19.87           6921.           19.75    
      3      1      3     15       19.65           3622.           19.50    
      4      1      4     15       19.42           2382.           19.25    
      5      1      5     15       19.19           751.0           19.00    
      6      1      6     15       18.97           9750.           18.75    
      7      1      7     15       18.74          0.1169E+05       18.50    
      8      1      8     15       18.51           2115.           18.25    
      9      1      9     15       18.28           6217.           18.00    
     10      1     10     15       19.06           637.8           17.75    
     11      1     11     15       17.83           2210.           17.50    
     12      1     12     15       17.60           1501.           17.25    
     13      1     13     15       17.38          0.1702E+05       17.00    
     14      1     14     15       17.15           8460.           16.75    
     15      1     15     15       16.92           1355.           16.50    
     16      1     16     15       16.70          0.2818E+05       16.25    
     17      1     17     15       16.47          0.3343E+05       16.00    
     18      1     18     15       16.24          0.1002E+06       15.75    
     19      1     19     15       16.02           2836.           15.50    
     20      1     20     15       15.79           1701.           15.25    
     21      1     21     15       15.56          0.2368E+05       15.00    
     22      1     22     15       15.33           1998.           14.75    
     23      1     23     15       15.11           2943.           14.50    
     24      1     24     15       14.88          0.1064E+05       14.25    
     25      1     25     15       14.65          0.1480E+05       14.00    
     26      1     26     15       14.43           2100.           13.75    
     27      1     27     15       14.20           4859.           13.50    
     28      1     28     15       13.97          0.1065E+05       13.25    
     29      1     29     15       13.75          0.1517E+05       13.00    
     30      1     30     15       13.52           4737.           12.75    
     31      1     31     15       13.29           7035.           12.50    
     32      1     32     15       13.07          0.2047E+05       12.25    
     33      1     33     15       12.84           2465.           12.00    
     34      1     34     15       12.61           7241.           11.75    
     35      1     35     15       12.38          0.2066E+05       11.50    
     36      1     36     15       12.16           462.0           11.25    
     37      1     37     15       11.93           1491.           11.00    
     38      1     38     15       11.70           890.2           10.75    
     39      1     39     15       11.48          0.2935E+05       10.50    
     40      1     40     15       11.25           5645.           10.25    

     40 RIVER REACHES

 OPENING FILE ON UNIT   99:
 rech_0.ref                                                                                                                                                                                              



                           RECHARGE
 READING ON UNIT   99 WITH FORMAT: (20G15.6)           

 SOLVING FOR HEAD 


    15 CALLS TO PCG ROUTINE FOR TIME STEP   1 IN STRESS PERIOD    1
   232 TOTAL ITERATIONS

 MAXIMUM HEAD CHANGE FOR EACH ITERATION (1 INDICATES THE FIRST INNER ITERATION):

    HEAD CHANGE    HEAD CHANGE    HEAD CHANGE    HEAD CHANGE    HEAD CHANGE 
   LAYER,ROW,COL  LAYER,ROW,COL  LAYER,ROW,COL  LAYER,ROW,COL  LAYER,ROW,COL
 ---------------------------------------------------------------------------
  1  -55.97      0  -41.61      0  -30.44      0   19.87      0  -7.602    
   (  1, 39,  9)  (  1,  9,  4)  (  1,  8,  5)  (  1,  8,  5)  (  1,  8,  5)
  0  -2.785      0  -1.693      0 -0.4344      0 -0.6204      0 -0.2831    
   (  1, 12,  2)  (  1, 30,  3)  (  1, 24,  2)  (  1, 13,  2)  (  1, 10,  4)
  0  0.2932      0 -0.1285      0 -0.4303E-01  0  0.3717E-01  0  0.2153E-01
   (  1,  9,  4)  (  1, 13,  3)  (  1, 12,  3)  (  1, 13,  2)  (  1, 32,  5)
  0 -0.9418E-02  0  0.3831E-02  0  0.4282E-02  0 -0.1677E-02  0  0.1021E-02
   (  1,  5,  6)  (  1, 28,  2)  (  1,  9,  4)  (  1,  4,  7)  (  1,  9, 11)
  0 -0.8182E-03  0 -0.3112E-03  0  0.1320E-03  0 -0.1849E-03  0  0.8432E-04
   (  1,  5,  6)  (  1, 11,  1)  (  1, 11, 14)  (  1,  9,  4)  (  1,  9,  4)
  1   15.91      0  -13.87      0  -11.50      0   4.984      0  -2.051    
   (  1,  9,  4)  (  1,  9,  4)  (  1,  8,  5)  (  1,  8,  5)  (  1,  8,  5)
  0  -1.063      0 -0.7747      0 -0.1448      0 -0.1739      0 -0.7722E-01
   (  1, 33,  2)  (  1, 30,  3)  (  1, 23,  3)  (  1, 13,  2)  (  1, 10,  4)
  0  0.6801E-01  0 -0.3164E-01  0 -0.2335E-01  0  0.1164E-01  0  0.9608E-02
   (  1,  9,  4)  (  1, 20,  3)  (  1, 25,  3)  (  1, 29,  6)  (  1, 13,  2)
  0  0.4288E-02  0 -0.2301E-02  0  0.1337E-02  0 -0.8930E-03  0  0.4240E-03
   (  1,  3,  5)  (  1,  5,  6)  (  1,  9,  4)  (  1, 10,  4)  (  1, 25, 13)
  0  0.2433E-03  0  0.1170E-03  0 -0.1480E-03  0  0.7346E-04  0 -0.2630E-04
   (  1, 33,  7)  (  1, 23,  9)  (  1,  8,  5)  (  1,  7,  5)  (  1,  8,  5)
  1   12.37      0  -7.524      0  -6.010      0  -1.174      0  -1.100    
   (  1,  9,  4)  (  1,  9,  4)  (  1,  8,  5)  (  1, 12,  1)  (  1,  8,  5)
  0 -0.4662      0 -0.3241      0 -0.9687E-01  0 -0.7295E-01  0 -0.3861E-01
   (  1, 33,  2)  (  1, 28,  2)  (  1, 25,  4)  (  1, 13,  2)  (  1, 28,  4)
  0 -0.2829E-01  0 -0.1717E-01  0 -0.1139E-01  0 -0.7670E-02  0  0.4636E-02
   (  1,  9,  4)  (  1, 22,  3)  (  1, 24,  2)  (  1, 12,  3)  (  1, 12,  2)
  0 -0.1630E-02  0  0.9409E-03  0 -0.3837E-03  0  0.4550E-03  0 -0.2273E-03
   (  1,  2,  7)  (  1,  1, 20)  (  1, 21, 12)  (  1,  9,  4)  (  1,  1, 20)
  0  0.1192E-03  0  0.8190E-04  0 -0.7656E-04  0  0.2788E-04  0 -0.9537E-05
   (  1, 33,  6)  (  1,  1, 20)  (  1,  8,  5)  (  1,  8,  5)  (  1,  1, 20)
  1   2.579      0   1.611      0  -1.595      0 -0.3974      0 -0.4914    
   (  1,  8,  5)  (  1,  9,  4)  (  1,  9,  4)  (  1, 18, 10)  (  1,  8,  5)
  0 -0.1651      0 -0.9904E-01  0 -0.4174E-01  0 -0.2919E-01  0 -0.1662E-01
   (  1, 24,  2)  (  1, 28,  2)  (  1, 25,  3)  (  1,  5,  6)  (  1, 32,  5)
  0 -0.7432E-02  0 -0.5379E-02  0 -0.4044E-02  0 -0.4241E-02  0  0.1794E-02
   (  1,  9,  4)  (  1, 23,  5)  (  1,  2,  5)  (  1, 12,  3)  (  1, 12,  2)
  0 -0.6725E-03  0 -0.2865E-03  0  0.2604E-03  0 -0.1220E-03  0  0.1051E-03
   (  1,  2,  7)  (  1, 12,  3)  (  1, 12,  2)  (  1,  9,  4)  (  1,  9,  4)
  0  0.4145E-04  0  0.3766E-04  0  0.2355E-04  0 -0.1451E-04  0  0.3850E-05
   (  1,  6,  9)  (  1,  1, 20)  (  1,  8,  5)  (  1,  8,  5)  (  1, 33,  2)
  1 -0.7812      0   1.015      0 -0.4195      0 -0.1838      0 -0.9130E-01
   (  1,  9,  4)  (  1,  9,  4)  (  1, 33, 12)  (  1, 18, 10)  (  1, 24,  2)
  0 -0.5975E-01  0  0.2946E-01  0 -0.2268E-01  0 -0.1057E-01  0 -0.4737E-02
   (  1,  6,  4)  (  1,  8,  5)  (  1,  8,  5)  (  1, 18, 10)  (  1,  9,  4)
  0  0.3360E-02  0 -0.2079E-02  0 -0.1365E-02  0 -0.8787E-03  0 -0.6072E-03
   (  1,  9,  4)  (  1, 20,  4)  (  1, 34,  3)  (  1, 12,  3)  (  1, 28,  2)
  0 -0.2556E-03  0 -0.1013E-03  0 -0.9403E-04  0  0.1278E-03  0 -0.3522E-04
   (  1, 37,  5)  (  1, 12,  2)  (  1,  9,  4)  (  1, 12,  2)  (  1,  1, 20)
  0  0.1518E-04  0 -0.8089E-05  1 -0.2939      0  0.3092      0 -0.1271    
   (  1,  6,  9)  (  1,  4,  7)  (  1,  9,  4)  (  1,  9,  4)  (  1, 33, 13)
  0 -0.1015      0  0.4102E-01  0 -0.1729E-01  0 -0.8665E-02  0 -0.5786E-02
   (  1,  8,  5)  (  1,  8,  5)  (  1,  6,  4)  (  1, 23, 11)  (  1, 29,  5)
  0 -0.4084E-02  0  0.1606E-02  0  0.1107E-02  0  0.6583E-03  0 -0.4565E-03
   (  1, 18, 10)  (  1,  9,  4)  (  1,  9, 12)  (  1, 18, 10)  (  1, 34,  3)
  0 -0.2162E-03  0 -0.1825E-03  0 -0.1040E-03  0 -0.3634E-04  0  0.3469E-04
   (  1, 22,  3)  (  1, 28,  2)  (  1, 33, 14)  (  1, 10,  4)  (  1,  9,  4)
  0 -0.1906E-04  0 -0.1039E-04  0  0.7108E-05  1  0.7295E-01  0  0.7046E-01
   (  1, 33,  2)  (  1, 12,  2)  (  1, 12,  3)  (  1, 18, 10)  (  1,  9,  4)
  0  0.3841E-01  0 -0.3570E-01  0  0.1489E-01  0 -0.5257E-02  0 -0.2670E-02
   (  1,  8,  5)  (  1,  8,  5)  (  1,  8,  5)  (  1, 27,  7)  (  1, 23, 11)
  0 -0.1798E-02  0 -0.1496E-02  0  0.5490E-03  0 -0.3438E-03  0  0.2029E-03
   (  1, 30,  7)  (  1, 18, 10)  (  1,  9,  4)  (  1, 10,  4)  (  1, 18, 10)
  0 -0.1400E-03  0 -0.1024E-03  0 -0.4440E-04  0 -0.3473E-04  0 -0.1304E-04
   (  1, 12, 10)  (  1, 18, 10)  (  1,  5,  6)  (  1, 33, 14)  (  1,  6,  9)
  0 -0.6462E-05  1  0.2512E-01  0 -0.1716E-01  0  0.1526E-01  0 -0.8829E-02
   (  1,  9,  4)  (  1, 21, 14)  (  1,  9,  4)  (  1,  9,  4)  (  1,  8,  5)
  0  0.5140E-02  0 -0.2075E-02  0 -0.7460E-03  0 -0.5268E-03  0 -0.4849E-03
   (  1,  8,  5)  (  1,  8,  5)  (  1, 27, 14)  (  1, 27,  8)  (  1, 18, 10)
  0  0.1711E-03  0 -0.1279E-03  0  0.6636E-04  0 -0.4142E-04  0 -0.3406E-04
   (  1,  9,  4)  (  1,  9,  4)  (  1, 18, 10)  (  1, 12, 10)  (  1,  9, 12)
  0  0.1526E-04  0 -0.1121E-04  0 -0.4696E-05  1  0.8773E-02  0 -0.7658E-02
   (  1,  4,  5)  (  1, 33, 14)  (  1,  8,  5)  (  1, 21, 14)  (  1,  9,  4)
  0 -0.5335E-02  0 -0.2697E-02  0  0.1150E-02  0 -0.8395E-03  0  0.3345E-03
   (  1, 25, 13)  (  1, 21, 14)  (  1,  8,  5)  (  1,  8,  5)  (  1,  8,  5)
  0 -0.1568E-03  0 -0.1447E-03  0 -0.5166E-04  0 -0.3931E-04  0  0.2373E-04
   (  1,  8,  5)  (  1, 18, 10)  (  1,  9,  4)  (  1,  5,  6)  (  1, 18, 10)
  0 -0.1238E-04  0 -0.9364E-05  1  0.2971E-02  0 -0.2835E-02  0 -0.1771E-02
   (  1, 12, 10)  (  1,  9, 12)  (  1,  9,  4)  (  1,  9,  4)  (  1, 27, 14)
  0 -0.8506E-03  0 -0.2871E-03  0  0.1336E-03  0 -0.1036E-03  0  0.5142E-04
   (  1, 21, 14)  (  1, 28, 13)  (  1,  8,  5)  (  1,  8,  5)  (  1,  6,  4)
  0 -0.3844E-04  0 -0.1728E-04  0 -0.1291E-04  0  0.7204E-05  1  0.9825E-03
   (  1,  8,  5)  (  1,  9,  4)  (  1, 32, 11)  (  1, 18, 10)  (  1, 21, 14)
  0 -0.8732E-03  0 -0.5655E-03  0 -0.2465E-03  0 -0.1479E-03  0  0.8593E-04
   (  1,  9,  4)  (  1, 27, 14)  (  1, 21, 14)  (  1,  8,  5)  (  1,  8,  5)
  0 -0.3230E-04  0  0.1360E-04  0 -0.1154E-04  0  0.4468E-05  1  0.3328E-03
   (  1,  5,  5)  (  1,  5,  6)  (  1, 18, 10)  (  1,  9,  4)  (  1, 21, 14)
  0 -0.2221E-03  0 -0.1599E-03  0 -0.7057E-04  0 -0.5235E-04  0  0.2645E-04
   (  1,  9,  4)  (  1, 21, 14)  (  1, 21, 14)  (  1,  8,  5)  (  1,  8,  5)
  0 -0.9761E-05  1  0.1011E-03  0 -0.7157E-04  0  0.3557E-04  0  0.3599E-04
   (  1,  5,  5)  (  1, 21, 14)  (  1,  9,  4)  (  1,  9,  4)  (  1,  8,  5)
  0 -0.2162E-04  0 -0.6507E-05  1  0.2724E-04  0  0.2040E-04  0 -0.1872E-04
   (  1,  8,  5)  (  1, 22, 12)  (  1, 11, 14)  (  1,  9,  4)  (  1, 11,  2)
  0 -0.9031E-05  1  0.8546E-05
   (  1, 21, 14)  (  1, 18, 10)

 MAXIMUM RESIDUAL FOR EACH ITERATION (1 INDICATES THE FIRST INNER ITERATION):

    RESIDUAL       RESIDUAL       RESIDUAL       RESIDUAL       RESIDUAL    
   LAYER,ROW,COL  LAYER,ROW,COL  LAYER,ROW,COL  LAYER,ROW,COL  LAYER,ROW,COL
 ---------------------------------------------------------------------------
  1  0.2728E+05  0  0.2088E+05  0  -8909.      0   3542.      0   1835.    
   (  1, 18, 15)  (  1, 18, 15)  (  1, 39, 13)  (  1, 18, 15)  (  1, 18, 15)
  0   1251.      0  -798.1      0  -578.6      0  -393.5      0  -299.8    
   (  1, 18, 15)  (  1, 39, 15)  (  1, 39, 15)  (  1, 39, 15)  (  1, 39, 15)
  0  -205.8      0  -110.3      0  -68.98      0  -39.64      0  -19.78    
   (  1, 39, 15)  (  1, 39, 15)  (  1, 39, 15)  (  1, 39, 15)  (  1, 39, 15)
  0  -9.395      0  -6.028      0  -5.406      0  -3.190      0  -1.905    
   (  1, 39, 15)  (  1, 39, 15)  (  1, 39, 15)  (  1, 39, 15)  (  1, 39, 15)
  0  -1.057      0 -0.5595      0 -0.2954      0 -0.2028      0 -0.1685    
   (  1, 39, 15)  (  1, 39, 15)  (  1, 39, 15)  (  1, 39, 15)  (  1, 39, 15)
  1   6812.      0   4793.      0  -2470.      0   982.1      0   458.0    
   (  1, 18, 15)  (  1, 18, 15)  (  1, 39, 13)  (  1, 18, 15)  (  1, 18, 15)
  0   284.7      0  -172.7      0  -128.3      0  -88.16      0  -71.49    
   (  1, 18, 15)  (  1, 39, 15)  (  1, 39, 15)  (  1, 39, 15)  (  1, 39, 15)
  0  -54.00      0  -29.39      0  -18.51      0  -10.68      0  -6.244    
   (  1, 39, 15)  (  1, 39, 15)  (  1, 39, 15)  (  1, 39, 15)  (  1, 39, 15)
  0  -3.496      0  -1.514      0  -1.274      0 -0.8854      0 -0.4902    
   (  1, 39, 15)  (  1, 39, 15)  (  1, 39, 15)  (  1, 39, 15)  (  1, 39, 15)
  0 -0.2678      0 -0.1515      0 -0.1083      0 -0.6030E-01  0 -0.3387E-01
   (  1, 39, 15)  (  1, 39, 15)  (  1, 39, 15)  (  1, 39, 15)  (  1, 39, 15)
  1   3800.      0   2112.      0   766.6      0   386.2      0   172.7    
   (  1, 18, 15)  (  1, 18, 15)  (  1, 18, 15)  (  1, 18, 15)  (  1, 18, 15)
  0   89.02      0   48.04      0  -28.64      0  -21.94      0  -16.57    
   (  1, 18, 15)  (  1, 18, 15)  (  1, 39, 15)  (  1, 39, 15)  (  1, 39, 15)
  0  -14.82      0  -9.847      0  -6.065      0  -4.010      0  -2.452    
   (  1, 39, 15)  (  1, 39, 15)  (  1, 39, 15)  (  1, 39, 15)  (  1, 39, 15)
  0  -1.294      0 -0.6359      0 -0.3814      0 -0.3145      0 -0.1901    
   (  1, 39, 15)  (  1, 39, 15)  (  1, 39, 15)  (  1, 39, 15)  (  1, 39, 15)
  0 -0.8768E-01  0 -0.5173E-01  0 -0.3601E-01  0 -0.1728E-01  0 -0.9100E-02
   (  1, 39, 15)  (  1, 39, 15)  (  1, 39, 15)  (  1, 39, 15)  (  1, 39, 15)
  1   1673.      0   958.9      0   300.0      0   137.0      0   68.81    
   (  1, 18, 15)  (  1, 18, 15)  (  1, 18, 15)  (  1, 18, 15)  (  1, 18, 15)
  0   37.32      0   17.78      0   10.57      0   6.732      0  -4.336    
   (  1, 18, 15)  (  1, 18, 15)  (  1, 18, 15)  (  1, 18, 15)  (  1, 39, 15)
  0  -4.014      0  -2.979      0  -1.974      0  -1.289      0 -0.7900    
   (  1, 39, 15)  (  1, 39, 15)  (  1, 39, 15)  (  1, 39, 15)  (  1, 39, 15)
  0 -0.4659      0 -0.2885      0 -0.1403      0 -0.1123      0 -0.7496E-01
   (  1, 39, 15)  (  1, 39, 15)  (  1, 39, 15)  (  1, 39, 15)  (  1, 39, 15)
  0 -0.3842E-01  0 -0.1765E-01  0 -0.1020E-01  0 -0.6403E-02  0 -0.3216E-02
   (  1, 39, 15)  (  1, 39, 15)  (  1, 39, 15)  (  1, 39, 15)  (  1, 39, 15)
  1   1066.      0   448.6      0   130.4      0   49.13      0   21.99    
   (  1, 18, 15)  (  1, 18, 15)  (  1, 18, 15)  (  1, 18, 15)  (  1, 18, 15)
  0   13.38      0   6.750      0   3.970      0   2.373      0   2.040    
   (  1, 18, 15)  (  1, 18, 15)  (  1, 18, 15)  (  1, 18, 15)  (  1, 18, 15)
  0   1.355      0 -0.8938      0 -0.5972      0 -0.4145      0 -0.2558    
   (  1, 18, 15)  (  1, 39, 15)  (  1, 39, 15)  (  1, 39, 15)  (  1, 39, 15)
  0 -0.1440      0 -0.9551E-01  0 -0.8276E-01  0 -0.4379E-01  0 -0.2300E-01
   (  1, 39, 15)  (  1, 39, 15)  (  1, 39, 15)  (  1, 39, 15)  (  1, 39, 15)
  0 -0.1306E-01  0 -0.6190E-02  1   365.3      0   187.6      0   56.11    
   (  1, 39, 15)  (  1, 39, 15)  (  1, 18, 15)  (  1, 18, 15)  (  1, 18, 15)
  0   20.93      0   9.487      0   5.141      0   2.543      0   1.432    
   (  1, 18, 15)  (  1, 18, 15)  (  1, 18, 15)  (  1, 18, 15)  (  1, 18, 15)
  0  0.8227      0  0.7385      0  0.4606      0  0.2965      0 -0.1807    
   (  1, 18, 15)  (  1, 18, 15)  (  1, 18, 15)  (  1, 18, 15)  (  1, 39, 15)
  0 -0.1258      0 -0.8182E-01  0 -0.4454E-01  0 -0.2656E-01  0 -0.2146E-01
   (  1, 39, 15)  (  1, 39, 15)  (  1, 39, 15)  (  1, 39, 15)  (  1, 39, 15)
  0 -0.1054E-01  0 -0.6320E-02  0 -0.3521E-02  1   98.41      0   67.15    
   (  1, 39, 15)  (  1, 39, 15)  (  1, 39, 15)  (  1, 18, 15)  (  1, 18, 15)
  0   20.87      0   7.735      0   3.394      0   1.705      0  0.8925    
   (  1, 18, 15)  (  1, 18, 15)  (  1, 18, 15)  (  1, 18, 15)  (  1, 18, 15)
  0  0.4948      0  0.2668      0  0.2219      0  0.1476      0  0.9789E-01
   (  1, 18, 15)  (  1, 18, 15)  (  1, 18, 15)  (  1, 18, 15)  (  1, 18, 15)
  0  0.5892E-01  0 -0.3434E-01  0 -0.2467E-01  0 -0.1411E-01  0 -0.7738E-02
   (  1, 18, 15)  (  1, 39, 15)  (  1, 39, 15)  (  1, 39, 15)  (  1, 39, 15)
  0 -0.6684E-02  1   33.32      0   20.38      0   7.008      0   2.530    
   (  1, 39, 15)  (  1, 18, 15)  (  1, 18, 15)  (  1, 18, 15)  (  1, 18, 15)
  0   1.150      0  0.5371      0  0.2937      0  0.1655      0  0.8684E-01
   (  1, 18, 15)  (  1, 18, 15)  (  1, 18, 15)  (  1, 18, 15)  (  1, 18, 15)
  0  0.6932E-01  0  0.4859E-01  0  0.3162E-01  0  0.1933E-01  0  0.1125E-01
   (  1, 18, 15)  (  1, 18, 15)  (  1, 18, 15)  (  1, 18, 15)  (  1, 18, 15)
  0 -0.7582E-02  0 -0.4440E-02  0 -0.2744E-02  1   13.82      0   9.362    
   (  1, 39, 15)  (  1, 39, 15)  (  1, 39, 15)  (  1, 18, 15)  (  1, 18, 15)
  0   2.322      0  0.7668      0  0.3382      0  0.1664      0  0.8939E-01
   (  1, 18, 15)  (  1, 18, 15)  (  1, 18, 15)  (  1, 18, 15)  (  1, 18, 15)
  0  0.5352E-01  0  0.2838E-01  0  0.2482E-01  0  0.1646E-01  0  0.1021E-01
   (  1, 18, 15)  (  1, 18, 15)  (  1, 18, 15)  (  1, 18, 15)  (  1, 18, 15)
  0  0.6148E-02  0  0.3847E-02  1   5.282      0   3.339      0  0.7772    
   (  1, 18, 15)  (  1, 18, 15)  (  1, 18, 15)  (  1, 18, 15)  (  1, 18, 15)
  0  0.2516      0  0.8619E-01  0  0.4446E-01  0  0.2372E-01  0  0.1551E-01
   (  1, 18, 15)  (  1, 18, 15)  (  1, 18, 15)  (  1, 18, 15)  (  1, 18, 15)
  0  0.8810E-02  0  0.7871E-02  0  0.5221E-02  0  0.3207E-02  1   1.758    
   (  1, 18, 15)  (  1, 18, 15)  (  1, 18, 15)  (  1, 18, 15)  (  1, 18, 15)
  0   1.149      0  0.2602      0  0.8916E-01  0  0.3313E-01  0  0.1760E-01
   (  1, 18, 15)  (  1, 18, 15)  (  1, 18, 15)  (  1, 18, 15)  (  1, 18, 15)
  0  0.8370E-02  0  0.5021E-02  0  0.2640E-02  0  0.2397E-02  1  0.4938    
   (  1, 18, 15)  (  1, 18, 15)  (  1, 18, 15)  (  1, 18, 15)  (  1, 18, 15)
  0  0.3559      0  0.8592E-01  0  0.3133E-01  0  0.1180E-01  0  0.5713E-02
   (  1, 18, 15)  (  1, 18, 15)  (  1, 18, 15)  (  1, 18, 15)  (  1, 18, 15)
  0  0.2587E-02  1  0.1677      0  0.4424E-01  0  0.3184E-01  0  0.1282E-01
   (  1, 18, 15)  (  1, 18, 15)  (  1, 18, 15)  (  1, 18, 15)  (  1, 18, 15)
  0  0.4599E-02  0  0.1607E-02  1  0.6303E-01  0  0.4393E-01  0  0.1261E-01
   (  1, 18, 15)  (  1, 18, 15)  (  1, 18, 15)  (  1, 18, 15)  (  1, 18, 15)
  0  0.2570E-02  1  0.5186E-01
   (  1, 18, 15)  (  1, 18, 15)



 OUTPUT CONTROL FOR STRESS PERIOD    1   TIME STEP    1
    SAVE HEAD FOR ALL LAYERS
    SAVE BUDGET
 UBDSV2 SAVING "   CONSTANT HEAD" ON UNIT  53 AT TIME STEP  1, STRESS PERIOD   1
 UBDSV1 SAVING "FLOW RIGHT FACE " ON UNIT  53 AT TIME STEP  1, STRESS PERIOD   1
 UBDSV1 SAVING "FLOW FRONT FACE " ON UNIT  53 AT TIME STEP  1, STRESS PERIOD   1

 HEAD WILL BE SAVED ON UNIT   51 AT END OF TIME STEP    1, STRESS PERIOD    1
1
  VOLUMETRIC BUDGET FOR ENTIRE MODEL AT END OF TIME STEP    1, STRESS PERIOD   1
  ------------------------------------------------------------------------------

     CUMULATIVE VOLUMES      L**3       RATES FOR THIS TIME STEP      L**3/T
     ------------------                 ------------------------

           IN:                                      IN:
           ---                                      ---
             STORAGE =           0.0000               STORAGE =           0.0000
       CONSTANT HEAD =           0.0000         CONSTANT HEAD =           0.0000
               WELLS =         599.0276                 WELLS =         599.0276
       RIVER LEAKAGE =          15.9824         RIVER LEAKAGE =          15.9824
            RECHARGE =        5989.1685              RECHARGE =        5989.1685

            TOTAL IN =        6604.1787              TOTAL IN =        6604.1787

          OUT:                                     OUT:
          ----                                     ----
             STORAGE =           0.0000               STORAGE =           0.0000
       CONSTANT HEAD =         496.0634         CONSTANT HEAD =         496.0634
               WELLS =           0.0000                 WELLS =           0.0000
       RIVER LEAKAGE =        6108.5264         RIVER LEAKAGE =        6108.5264
            RECHARGE =           0.0000              RECHARGE =           0.0000

           TOTAL OUT =        6604.5898             TOTAL OUT =        6604.5898

            IN - OUT =          -0.4111              IN - OUT =          -0.4111

 PERCENT DISCREPANCY =          -0.01     PERCENT DISCREPANCY =          -0.01






         TIME SUMMARY AT END OF TIME STEP    1 IN STRESS PERIOD    1
                    SECONDS     MINUTES      HOURS       DAYS        YEARS
                    -----------------------------------------------------------
   TIME STEP LENGTH  86400.      1440.0      24.000      1.0000     2.73785E-03
 STRESS PERIOD TIME  86400.      1440.0      24.000      1.0000     2.73785E-03
         TOTAL TIME  86400.      1440.0      24.000      1.0000     2.73785E-03
1
1
                            STRESS PERIOD NO.    2, LENGTH =   1825.000    
                            -----------------------------------------------

                              NUMBER OF TIME STEPS =     1

                               MULTIPLIER FOR DELT =     1.000

                            INITIAL TIME STEP SIZE =   1825.000    

 WELL NO.  LAYER   ROW   COL   STRESS RATE         
 --------------------------------------------------
      1      1      9     16       107.6    
      2      1     11     13       75.42    
      3      1     20     14       119.7    
      4      1     26     10       66.84    
      5      1     29      6       164.6    
      6      1     34     12       93.96    

      6 WELLS

 REUSING NON-PARAMETER RIVER REACHES FROM LAST STRESS PERIOD

     40 RIVER REACHES

 OPENING FILE ON UNIT   99:
 rech_1.ref                                                                                                                                                                                              



                           RECHARGE
 READING ON UNIT   99 WITH FORMAT: (20G15.6)           

 SOLVING FOR HEAD 


    10 CALLS TO PCG ROUTINE FOR TIME STEP   1 IN STRESS PERIOD    2
    70 TOTAL ITERATIONS

 MAXIMUM HEAD CHANGE FOR EACH ITERATION (1 INDICATES THE FIRST INNER ITERATION):

    HEAD CHANGE    HEAD CHANGE    HEAD CHANGE    HEAD CHANGE    HEAD CHANGE 
   LAYER,ROW,COL  LAYER,ROW,COL  LAYER,ROW,COL  LAYER,ROW,COL  LAYER,ROW,COL
 ---------------------------------------------------------------------------
  1  -1.090      0 -0.5109      0  0.1626      0 -0.1233      0 -0.2480E-01
   (  1,  9,  1)  (  1,  8,  5)  (  1, 12,  3)  (  1, 29,  6)  (  1,  6,  4)
  0 -0.7988E-02  0 -0.4416E-02  0 -0.1688E-02  0 -0.7597E-03  0  0.2703E-03
   (  1, 24,  2)  (  1,  4,  5)  (  1,  4,  1)  (  1, 33, 14)  (  1, 24,  2)
  0 -0.1221E-03  0  0.4535E-04  0  0.1463E-04  0 -0.8435E-05  1  0.1174    
   (  1,  8,  5)  (  1, 33, 14)  (  1,  8, 12)  (  1,  8,  5)  (  1,  9,  3)
  0  0.8903E-01  0 -0.3212E-01  0  0.7768E-02  0 -0.2993E-02  0 -0.8583E-03
   (  1,  8,  5)  (  1, 29,  6)  (  1, 13,  2)  (  1, 24,  2)  (  1, 27,  1)
  0 -0.4592E-03  0 -0.1501E-03  0  0.4700E-04  0  0.2462E-04  0  0.8666E-05
   (  1, 24,  2)  (  1, 11, 14)  (  1, 30,  5)  (  1,  9, 11)  (  1, 33, 14)
  1  0.3486E-01  0  0.2467E-01  0 -0.9055E-02  0  0.2347E-02  0 -0.7923E-03
   (  1,  9,  3)  (  1,  8,  5)  (  1, 29,  6)  (  1, 13,  2)  (  1, 24,  2)
  0  0.2591E-03  0 -0.1181E-03  0 -0.4337E-04  0  0.1685E-04  0  0.6098E-05
   (  1, 24,  2)  (  1, 24,  2)  (  1, 11, 14)  (  1,  9, 11)  (  1,  8, 12)
  1  0.1014E-01  0  0.6772E-02  0 -0.2443E-02  0  0.6701E-03  0 -0.1922E-03
   (  1,  9,  4)  (  1,  8,  5)  (  1, 29,  6)  (  1, 13,  2)  (  1, 24,  2)
  0 -0.8027E-04  0 -0.3156E-04  0 -0.1259E-04  0  0.5686E-05  1  0.2894E-02
   (  1, 26,  1)  (  1, 24,  2)  (  1, 33, 14)  (  1,  9, 11)  (  1,  9,  4)
  0  0.1850E-02  0 -0.6345E-03  0  0.1830E-03  0 -0.5290E-04  0 -0.2431E-04
   (  1,  8,  5)  (  1, 29,  6)  (  1, 13,  2)  (  1,  9, 11)  (  1, 26,  1)
  0 -0.9407E-05  1  0.8264E-03  0  0.5041E-03  0 -0.1588E-03  0  0.4913E-04
   (  1, 24,  2)  (  1, 29,  6)  (  1,  8,  5)  (  1, 29,  6)  (  1, 13,  2)
  0 -0.1813E-04  0 -0.6949E-05  1  0.2336E-03  0  0.1407E-03  0 -0.3856E-04
   (  1,  9, 11)  (  1, 26,  1)  (  1, 29,  6)  (  1,  8,  5)  (  1, 29,  6)
  0  0.1349E-04  0 -0.5622E-05  1 -0.7118E-04  0  0.3857E-04  0  0.1091E-04
   (  1, 13,  2)  (  1,  9, 11)  (  1, 27, 14)  (  1,  8,  5)  (  1, 28, 13)
  0 -0.4074E-05  1 -0.2135E-04  0  0.1152E-04  0  0.3342E-05  1 -0.5626E-05
   (  1,  8, 12)  (  1, 27, 14)  (  1,  8,  5)  (  1, 28, 13)  (  1, 27, 14)

 MAXIMUM RESIDUAL FOR EACH ITERATION (1 INDICATES THE FIRST INNER ITERATION):

    RESIDUAL       RESIDUAL       RESIDUAL       RESIDUAL       RESIDUAL    
   LAYER,ROW,COL  LAYER,ROW,COL  LAYER,ROW,COL  LAYER,ROW,COL  LAYER,ROW,COL
 ---------------------------------------------------------------------------
  1   47.89      0   25.00      0   15.04      0   5.318      0  -2.603    
   (  1,  8,  5)  (  1,  9, 15)  (  1,  9, 15)  (  1, 26, 15)  (  1, 27, 14)
  0   1.436      0 -0.5452      0  0.1179      0 -0.7297E-01  0  0.2586E-01
   (  1, 27, 14)  (  1, 27, 14)  (  1,  4, 15)  (  1, 31, 12)  (  1, 32, 11)
  0  0.7690E-02  0 -0.4912E-02  0 -0.1230E-02  0  0.5737E-03  1   9.900    
   (  1, 18, 15)  (  1,  8, 12)  (  1,  9, 11)  (  1,  1, 15)  (  1,  9, 15)
  0   4.854      0   2.170      0  0.6016      0  0.2841      0  0.8362E-01
   (  1,  9, 15)  (  1, 26, 15)  (  1, 26, 15)  (  1,  9, 15)  (  1,  9, 15)
  0 -0.3281E-01  0  0.1275E-01  0  0.5762E-02  0 -0.2404E-02  0 -0.1429E-02
   (  1, 31, 12)  (  1, 32, 11)  (  1,  9, 15)  (  1,  8, 12)  (  1, 27, 14)
  1   3.397      0   1.573      0  0.6641      0  0.1878      0  0.7400E-01
   (  1,  9, 15)  (  1,  9, 15)  (  1, 26, 15)  (  1, 26, 15)  (  1,  9, 15)
  0  0.2600E-01  0  0.7701E-02  0 -0.3458E-02  0  0.2034E-02  0 -0.6783E-03
   (  1,  9, 15)  (  1, 31, 15)  (  1,  9, 11)  (  1,  9, 15)  (  1, 27, 14)
  1  -1.140      0  0.5047      0  0.2001      0  0.5816E-01  0  0.2049E-01
   (  1, 27, 14)  (  1,  9, 15)  (  1, 26, 15)  (  1, 26, 15)  (  1,  9, 15)
  0  0.7577E-02  0  0.2558E-02  0 -0.1450E-02  0  0.6458E-03  1 -0.4025    
   (  1,  9, 15)  (  1, 31, 15)  (  1,  9, 11)  (  1,  9, 15)  (  1, 27, 14)
  0  0.1620      0  0.5991E-01  0  0.1799E-01  0  0.6722E-02  0  0.2162E-02
   (  1,  9, 15)  (  1, 26, 15)  (  1, 26, 15)  (  1,  9, 15)  (  1,  4, 15)
  0 -0.9615E-03  1 -0.1371      0  0.5242E-01  0  0.1797E-01  0  0.5406E-02
   (  1, 24,  2)  (  1, 27, 14)  (  1,  9, 15)  (  1, 26, 15)  (  1, 26, 15)
  0  0.2191E-02  0  0.6304E-03  1 -0.4482E-01  0  0.1693E-01  0  0.5381E-02
   (  1,  9, 15)  (  1,  4, 15)  (  1, 27, 14)  (  1,  9, 15)  (  1, 26, 15)
  0  0.1573E-02  0  0.6560E-03  1 -0.1449E-01  0  0.5402E-02  0  0.1589E-02
   (  1, 26, 15)  (  1,  9, 15)  (  1, 27, 14)  (  1,  9, 15)  (  1, 26, 15)
  0  0.4312E-03  1 -0.4655E-02  0  0.1846E-02  0  0.4320E-03  1  0.1361E-02
   (  1, 26, 15)  (  1, 27, 14)  (  1,  9, 15)  (  1, 26, 15)  (  1,  9, 15)



 OUTPUT CONTROL FOR STRESS PERIOD    2   TIME STEP    1
    SAVE HEAD FOR ALL LAYERS
    SAVE BUDGET
 UBDSV1 SAVING "         STORAGE" ON UNIT  53 AT TIME STEP  1, STRESS PERIOD   2
 UBDSV2 SAVING "   CONSTANT HEAD" ON UNIT  53 AT TIME STEP  1, STRESS PERIOD   2
 UBDSV1 SAVING "FLOW RIGHT FACE " ON UNIT  53 AT TIME STEP  1, STRESS PERIOD   2
 UBDSV1 SAVING "FLOW FRONT FACE " ON UNIT  53 AT TIME STEP  1, STRESS PERIOD   2

 HEAD WILL BE SAVED ON UNIT   51 AT END OF TIME STEP    1, STRESS PERIOD    2
1
  VOLUMETRIC BUDGET FOR ENTIRE MODEL AT END OF TIME STEP    1, STRESS PERIOD   2
  ------------------------------------------------------------------------------

     CUMULATIVE VOLUMES      L**3       RATES FOR THIS TIME STEP      L**3/T
     ------------------                 ------------------------

           IN:                                      IN:
           ---                                      ---
             STORAGE =     2241844.7500               STORAGE =        1228.4081
       CONSTANT HEAD =           0.0000         CONSTANT HEAD =           0.0000
               WELLS =     1146861.6250                 WELLS =         628.0891
       RIVER LEAKAGE =       59839.9727         RIVER LEAKAGE =          32.7803
            RECHARGE =     6817546.5000              RECHARGE =        3732.3604

            TOTAL IN =    10266093.0000              TOTAL IN =        5621.6377

          OUT:                                     OUT:
          ----                                     ----
             STORAGE =          70.0499               STORAGE =       3.8383E-02
       CONSTANT HEAD =      736873.0000         CONSTANT HEAD =         403.4942
               WELLS =           0.0000                 WELLS =           0.0000
       RIVER LEAKAGE =     9529208.0000         RIVER LEAKAGE =        5218.1362
            RECHARGE =           0.0000              RECHARGE =           0.0000

           TOTAL OUT =    10266151.0000             TOTAL OUT =        5621.6689

            IN - OUT =         -58.0000              IN - OUT =      -3.1250E-02

 PERCENT DISCREPANCY =          -0.00     PERCENT DISCREPANCY =          -0.00






         TIME SUMMARY AT END OF TIME STEP    1 IN STRESS PERIOD    2
                    SECONDS     MINUTES      HOURS       DAYS        YEARS
                    -----------------------------------------------------------
   TIME STEP LENGTH 1.57680E+08 2.62800E+06  43800.      1825.0      4.9966    
 STRESS PERIOD TIME 1.57680E+08 2.62800E+06  43800.      1825.0      4.9966    
         TOTAL TIME 1.57766E+08 2.62944E+06  43824.      1826.0      4.9993    
1
1
                            STRESS PERIOD NO.    3, LENGTH =   1.000000    
                            -----------------------------------------------

                              NUMBER OF TIME STEPS =     1

                               MULTIPLIER FOR DELT =     1.000

                            INITIAL TIME STEP SIZE =   1.000000    

 WELL NO.  LAYER   ROW   COL   STRESS RATE         
 --------------------------------------------------
      1      1      9     16       107.6    
      2      1     11     13       75.42    
      3      1     20     14       119.7    
      4      1     26     10       66.84    
      5      1     29      6       164.6    
      6      1     34     12       93.96    

      6 WELLS

 REUSING NON-PARAMETER RIVER REACHES FROM LAST STRESS PERIOD

     40 RIVER REACHES

 OPENING FILE ON UNIT   99:
 rech_2.ref                                                                                                                                                                                              



                           RECHARGE
 READING ON UNIT   99 WITH FORMAT: (20G15.6)           

 SOLVING FOR HEAD 


    11 CALLS TO PCG ROUTINE FOR TIME STEP   1 IN STRESS PERIOD    3
   137 TOTAL ITERATIONS

 MAXIMUM HEAD CHANGE FOR EACH ITERATION (1 INDICATES THE FIRST INNER ITERATION):

    HEAD CHANGE    HEAD CHANGE    HEAD CHANGE    HEAD CHANGE    HEAD CHANGE 
   LAYER,ROW,COL  LAYER,ROW,COL  LAYER,ROW,COL  LAYER,ROW,COL  LAYER,ROW,COL
 ---------------------------------------------------------------------------
  1  -1.700      0  -1.356      0  -1.415      0 -0.7710      0 -0.3547    
   (  1,  9,  4)  (  1,  8,  5)  (  1, 14,  1)  (  1,  8,  5)  (  1, 13,  2)
  0 -0.1752      0 -0.1101      0 -0.4666E-01  0  0.2920E-01  0  0.1760E-01
   (  1,  1,  1)  (  1,  2,  5)  (  1,  2,  3)  (  1,  8,  8)  (  1,  9,  4)
  0 -0.1773E-01  0 -0.7758E-02  0 -0.4837E-02  0 -0.3464E-02  0 -0.2204E-02
   (  1,  2,  7)  (  1, 24,  2)  (  1, 14,  2)  (  1,  2,  7)  (  1,  8,  1)
  0  0.6913E-03  0 -0.3580E-03  0  0.2314E-03  0 -0.2151E-03  0 -0.1217E-03
   (  1, 37,  5)  (  1, 21, 12)  (  1,  9,  4)  (  1, 12,  3)  (  1,  5,  5)
  0  0.6587E-04  0 -0.3690E-04  0  0.2965E-04  0 -0.1602E-04  0  0.9148E-05
   (  1, 33,  2)  (  1,  2, 20)  (  1,  8,  5)  (  1,  7,  1)  (  1,  1, 20)
  1  0.1219      0 -0.1725      0 -0.1546      0  0.6790E-01  0 -0.6301E-01
   (  1,  9,  4)  (  1,  9,  4)  (  1,  8,  5)  (  1,  8,  5)  (  1,  8,  5)
  0 -0.1857E-01  0 -0.1094E-01  0  0.5869E-02  0  0.4638E-02  0 -0.4156E-02
   (  1,  3,  9)  (  1, 24,  2)  (  1, 25,  4)  (  1, 10,  4)  (  1,  9,  4)
  0 -0.2472E-02  0  0.1113E-02  0  0.7732E-03  0 -0.3349E-03  0  0.3009E-03
   (  1, 12,  2)  (  1, 27,  1)  (  1, 33,  2)  (  1,  3,  9)  (  1, 28,  2)
  0  0.1101E-03  0  0.8679E-04  0 -0.1337E-03  0  0.3718E-04  0  0.1852E-04
   (  1, 13,  3)  (  1, 10,  4)  (  1, 12,  2)  (  1, 13,  3)  (  1,  1, 20)
  0  0.6399E-05  1  0.6088E-01  0  0.6947E-01  0 -0.4068E-01  0  0.2720E-01
   (  1, 19, 14)  (  1,  9,  4)  (  1,  8,  5)  (  1,  8,  5)  (  1,  8,  5)
  0  0.2106E-01  0  0.8282E-02  0  0.4565E-02  0  0.3544E-02  0 -0.1345E-02
   (  1, 13,  2)  (  1,  5,  5)  (  1, 18,  2)  (  1, 26,  1)  (  1,  9,  4)
  0  0.1747E-02  0 -0.8091E-03  0  0.4885E-03  0  0.2226E-03  0 -0.9232E-04
   (  1, 12,  3)  (  1, 12,  1)  (  1,  6,  6)  (  1,  2,  1)  (  1, 30,  8)
  0  0.8048E-04  0  0.4360E-04  0  0.5660E-04  0  0.2619E-04  0  0.1300E-04
   (  1, 24,  3)  (  1,  8,  5)  (  1,  8,  1)  (  1,  2,  7)  (  1, 22,  3)
  0  0.8681E-05  1  0.2314E-01  0  0.1462E-01  0 -0.1034E-01  0  0.9851E-02
   (  1,  2,  3)  (  1,  9,  4)  (  1,  8,  5)  (  1,  9, 11)  (  1,  8,  5)
  0  0.5877E-02  0  0.1922E-02  0  0.1282E-02  0  0.9208E-03  0  0.4232E-03
   (  1, 13,  2)  (  1,  2,  2)  (  1,  2,  3)  (  1,  2,  6)  (  1, 10,  4)
  0 -0.2931E-03  0  0.2204E-03  0  0.1050E-03  0  0.1043E-03  0 -0.3129E-04
   (  1,  9,  4)  (  1,  6,  6)  (  1, 26,  1)  (  1, 12,  3)  (  1, 12,  2)
  0  0.2070E-04  0  0.1770E-04  0  0.1104E-04  0 -0.6256E-05  1  0.4968E-02
   (  1, 19,  3)  (  1,  5,  6)  (  1, 10,  4)  (  1, 30,  3)  (  1,  8,  5)
  0  0.3290E-02  0 -0.2484E-02  0  0.2997E-02  0  0.1122E-02  0  0.4887E-03
   (  1,  9,  4)  (  1,  9, 11)  (  1,  8,  5)  (  1,  1,  5)  (  1,  7,  5)
  0  0.3514E-03  0  0.2489E-03  0 -0.1073E-03  0 -0.6842E-04  0  0.4834E-04
   (  1, 25,  4)  (  1,  2,  6)  (  1,  9,  8)  (  1,  9,  4)  (  1,  5,  6)
  0 -0.3902E-04  0  0.3442E-04  0  0.1104E-04  0 -0.4183E-05  1  0.6320E-03
   (  1, 12,  1)  (  1, 12,  2)  (  1, 18,  9)  (  1, 30,  3)  (  1,  7,  6)
  0  0.1115E-02  0 -0.7700E-03  0  0.7819E-03  0 -0.3010E-03  0  0.1383E-03
   (  1,  9,  4)  (  1,  9, 11)  (  1,  8,  5)  (  1,  8,  5)  (  1,  8,  5)
  0  0.9214E-04  0  0.4724E-04  0  0.2862E-04  0 -0.2901E-04  0  0.1317E-04
   (  1, 25,  4)  (  1,  2,  6)  (  1,  9,  4)  (  1, 11,  4)  (  1,  5,  5)
  0 -0.1019E-04  0  0.3480E-05  1 -0.2312E-03  0  0.1830E-03  0 -0.1935E-03
   (  1, 19,  3)  (  1,  4,  7)  (  1,  9,  4)  (  1,  9,  4)  (  1,  9, 11)
  0  0.1169E-03  0 -0.9512E-04  0  0.6615E-04  0 -0.2062E-04  0  0.1275E-04
   (  1,  8,  7)  (  1,  8,  5)  (  1,  8,  5)  (  1,  8,  5)  (  1, 31,  2)
  0 -0.1052E-04  0  0.5432E-05  1 -0.7635E-04  0 -0.7240E-04  0 -0.5291E-04
   (  1, 12,  3)  (  1,  9,  4)  (  1,  9,  4)  (  1,  8,  5)  (  1, 19,  1)
  0 -0.3565E-04  0  0.2581E-04  0 -0.1603E-04  0  0.7164E-05  1 -0.2698E-04
   (  1,  8,  5)  (  1,  8,  5)  (  1,  6,  4)  (  1, 11,  1)  (  1,  9,  4)
  0 -0.2642E-04  0 -0.1860E-04  0 -0.1810E-04  0  0.9638E-05  1 -0.1081E-04
   (  1,  8,  5)  (  1, 19,  1)  (  1,  8,  5)  (  1,  8,  7)  (  1,  9,  4)
  0  0.4647E-05  1  0.4123E-05
   (  1,  9,  4)  (  1,  8,  5)

 MAXIMUM RESIDUAL FOR EACH ITERATION (1 INDICATES THE FIRST INNER ITERATION):

    RESIDUAL       RESIDUAL       RESIDUAL       RESIDUAL       RESIDUAL    
   LAYER,ROW,COL  LAYER,ROW,COL  LAYER,ROW,COL  LAYER,ROW,COL  LAYER,ROW,COL
 ---------------------------------------------------------------------------
  1  -56.60      0  -88.49      0   55.62      0   34.74      0   19.85    
   (  1,  9,  4)  (  1,  9, 11)  (  1,  9, 15)  (  1, 26, 15)  (  1, 26, 15)
  0   13.48      0  -6.974      0  -4.013      0  -2.079      0   1.812    
   (  1, 26, 15)  (  1, 32, 14)  (  1, 32, 14)  (  1,  9,  4)  (  1,  4, 15)
  0  0.9902      0  0.6767      0  0.3887      0 -0.2668      0  0.1065    
   (  1,  1, 15)  (  1, 28, 13)  (  1, 32, 11)  (  1,  3, 13)  (  1,  1, 15)
  0  0.6296E-01  0 -0.4656E-01  0 -0.4189E-01  0  0.2353E-01  0  0.1266E-01
   (  1,  1, 15)  (  1, 27, 14)  (  1, 27, 14)  (  1,  1, 15)  (  1,  1, 15)
  0  0.6301E-02  0  0.3121E-02  0  0.2194E-02  0  0.1220E-02  0  0.6715E-03
   (  1,  1, 15)  (  1,  1, 15)  (  1,  1, 15)  (  1,  1, 15)  (  1,  1, 15)
  1   10.56      0   15.07      0   10.79      0   6.980      0   5.261    
   (  1,  9,  4)  (  1,  9, 15)  (  1,  9, 15)  (  1, 26, 15)  (  1, 26, 15)
  0   3.653      0   1.767      0   1.211      0  0.8296      0  0.5708    
   (  1, 26, 15)  (  1, 26, 15)  (  1, 26, 15)  (  1, 26, 15)  (  1,  4, 15)
  0  0.2538      0  0.1949      0  0.8081E-01  0  0.3918E-01  0  0.2389E-01
   (  1,  4, 15)  (  1, 26, 15)  (  1, 26, 15)  (  1,  3, 15)  (  1,  3, 15)
  0  0.1440E-01  0  0.1288E-01  0  0.8513E-02  0  0.4423E-02  0  0.2312E-02
   (  1,  3, 15)  (  1,  1, 15)  (  1,  1, 15)  (  1,  1, 15)  (  1,  1, 15)
  0  0.1297E-02  1  -3.795      0  -3.746      0   3.800      0  -2.149    
   (  1,  1, 15)  (  1, 29,  6)  (  1, 27, 14)  (  1,  9, 15)  (  1, 28, 13)
  0   1.522      0  0.8817      0  0.4961      0  0.2907      0  0.2553    
   (  1, 26, 15)  (  1, 26, 15)  (  1, 26, 15)  (  1, 26, 15)  (  1, 26, 15)
  0  0.1127      0  0.6376E-01  0  0.4507E-01  0  0.1959E-01  0 -0.1384E-01
   (  1,  4, 15)  (  1, 26, 15)  (  1, 26, 15)  (  1, 26, 15)  (  1, 31, 12)
  0  0.7680E-02  0  0.5258E-02  0  0.3421E-02  0  0.1713E-02  0  0.8740E-03
   (  1, 26, 15)  (  1, 26, 15)  (  1, 14, 13)  (  1, 28, 15)  (  1,  9, 15)
  0  0.4278E-03  1 -0.8602      0  -1.221      0   1.153      0  0.6890    
   (  1, 28, 15)  (  1, 29,  6)  (  1, 27, 14)  (  1,  9, 15)  (  1,  9, 15)
  0  0.4044      0  0.2257      0  0.1211      0  0.6588E-01  0  0.5251E-01
   (  1, 26, 15)  (  1, 26, 15)  (  1, 26, 15)  (  1, 26, 15)  (  1,  4, 15)
  0  0.2754E-01  0 -0.1576E-01  0  0.1152E-01  0  0.5423E-02  0  0.3875E-02
   (  1,  4, 15)  (  1, 33, 13)  (  1, 26, 15)  (  1, 31, 15)  (  1, 26, 15)
  0  0.2231E-02  0  0.1093E-02  0  0.9659E-03  0  0.4980E-03  1 -0.3266    
   (  1, 26, 15)  (  1, 14, 13)  (  1, 10, 14)  (  1, 28, 15)  (  1, 27, 14)
  0 -0.3958      0  0.3481      0  0.2300      0  0.9697E-01  0  0.6884E-01
   (  1, 27, 14)  (  1,  9, 15)  (  1,  9, 15)  (  1, 26, 15)  (  1, 26, 15)
  0  0.3108E-01  0  0.1845E-01  0  0.1083E-01  0  0.9009E-02  0  0.4838E-02
   (  1, 26, 15)  (  1,  4, 15)  (  1,  4, 15)  (  1,  4, 15)  (  1, 31, 15)
  0  0.2839E-02  0  0.1759E-02  0  0.1000E-02  0  0.7153E-03  1  0.7233E-01
   (  1, 31, 15)  (  1, 31, 15)  (  1, 31, 15)  (  1, 26, 15)  (  1, 26, 14)
  0 -0.1236      0  0.1058      0  0.7019E-01  0  0.2450E-01  0 -0.2001E-01
   (  1, 27, 14)  (  1,  9, 15)  (  1,  9, 15)  (  1, 26, 15)  (  1, 27, 14)
  0  0.8577E-02  0  0.5431E-02  0  0.4513E-02  0  0.3146E-02  0  0.1644E-02
   (  1,  4, 15)  (  1,  4, 15)  (  1,  4, 15)  (  1,  4, 15)  (  1,  4, 15)
  0  0.8411E-03  0  0.5073E-03  1  0.2529E-01  0 -0.3558E-01  0  0.3210E-01
   (  1,  4, 15)  (  1,  4, 15)  (  1, 26, 14)  (  1, 27, 14)  (  1,  9, 15)
  0  0.1662E-01  0  0.6797E-02  0 -0.5226E-02  0  0.2395E-02  0  0.1518E-02
   (  1,  9, 15)  (  1, 26, 15)  (  1, 27, 14)  (  1,  4, 15)  (  1,  4, 15)
  0  0.1005E-02  0  0.8922E-03  1  0.8556E-02  0 -0.9959E-02  0  0.9521E-02
   (  1,  4, 15)  (  1,  4, 15)  (  1, 26, 14)  (  1, 27, 14)  (  1,  9, 15)
  0  0.5334E-02  0  0.2200E-02  0 -0.1324E-02  0  0.6603E-03  1  0.2953E-02
   (  1,  9, 15)  (  1,  4, 15)  (  1, 27, 14)  (  1,  4, 15)  (  1, 26, 14)
  0 -0.3026E-02  0  0.3103E-02  0  0.2055E-02  0  0.6907E-03  1  0.1186E-02
   (  1, 27, 14)  (  1,  9, 15)  (  1,  9, 15)  (  1,  4, 15)  (  1,  9, 15)
  0  0.1201E-02  1  0.1179E-02
   (  1,  9, 15)  (  1,  9, 15)



 OUTPUT CONTROL FOR STRESS PERIOD    3   TIME STEP    1
    SAVE HEAD FOR ALL LAYERS
    SAVE BUDGET
 UBDSV2 SAVING "   CONSTANT HEAD" ON UNIT  53 AT TIME STEP  1, STRESS PERIOD   3
 UBDSV1 SAVING "FLOW RIGHT FACE " ON UNIT  53 AT TIME STEP  1, STRESS PERIOD   3
 UBDSV1 SAVING "FLOW FRONT FACE " ON UNIT  53 AT TIME STEP  1, STRESS PERIOD   3

 HEAD WILL BE SAVED ON UNIT   51 AT END OF TIME STEP    1, STRESS PERIOD    3
1
  VOLUMETRIC BUDGET FOR ENTIRE MODEL AT END OF TIME STEP    1, STRESS PERIOD   3
  ------------------------------------------------------------------------------

     CUMULATIVE VOLUMES      L**3       RATES FOR THIS TIME STEP      L**3/T
     ------------------                 ------------------------

           IN:                                      IN:
           ---                                      ---
             STORAGE =     2241844.7500               STORAGE =           0.0000
       CONSTANT HEAD =           0.0000         CONSTANT HEAD =           0.0000
               WELLS =     1147489.7500                 WELLS =         628.0891
       RIVER LEAKAGE =       59891.8516         RIVER LEAKAGE =          51.8788
            RECHARGE =     6821279.0000              RECHARGE =        3732.3604

            TOTAL IN =    10270505.0000              TOTAL IN =        4412.3281

          OUT:                                     OUT:
          ----                                     ----
             STORAGE =          70.0499               STORAGE =           0.0000
       CONSTANT HEAD =      737144.6875         CONSTANT HEAD =         271.6732
               WELLS =           0.0000                 WELLS =           0.0000
       RIVER LEAKAGE =     9533349.0000         RIVER LEAKAGE =        4140.6855
            RECHARGE =           0.0000              RECHARGE =           0.0000

           TOTAL OUT =    10270564.0000             TOTAL OUT =        4412.3589

            IN - OUT =         -59.0000              IN - OUT =      -3.0762E-02

 PERCENT DISCREPANCY =          -0.00     PERCENT DISCREPANCY =          -0.00






         TIME SUMMARY AT END OF TIME STEP    1 IN STRESS PERIOD    3
                    SECONDS     MINUTES      HOURS       DAYS        YEARS
                    -----------------------------------------------------------
   TIME STEP LENGTH  86400.      1440.0      24.000      1.0000     2.73785E-03
 STRESS PERIOD TIME  86400.      1440.0      24.000      1.0000     2.73785E-03
         TOTAL TIME 1.57853E+08 2.63088E+06  43848.      1827.0      5.0021    
1

 Run end date and time (yyyy/mm/dd hh:mm:ss): 2016/06/14 15:55:30
 Elapsed run time:  0.032 Seconds

