                                  MODFLOW-NWT-SWR1 
      U.S. GEOLOGICAL SURVEY MODULAR FINITE-DIFFERENCE GROUNDWATER-FLOW MODEL
                            VERSION 1.0.9 07/01/2014
                    BASED ON MODFLOW-2005 VERSION 1.11.00 08/30/2013

 LIST FILE: freyberg.list
                         UNIT    2

 OPENING freyberg.dis
 FILE TYPE:DIS   UNIT   11   STATUS:OLD    
 FORMAT:FORMATTED              ACCESS:SEQUENTIAL          

 OPENING freyberg.upw
 FILE TYPE:LPF   UNIT   31   STATUS:OLD    
 FORMAT:FORMATTED              ACCESS:SEQUENTIAL          

 OPENING freyberg.bas
 FILE TYPE:BAS6   UNIT   13   STATUS:OLD    
 FORMAT:FORMATTED              ACCESS:SEQUENTIAL          

 OPENING freyberg.rch
 FILE TYPE:RCH   UNIT   19   STATUS:OLD    
 FORMAT:FORMATTED              ACCESS:SEQUENTIAL          

 OPENING freyberg.wel
 FILE TYPE:WEL   UNIT   20   STATUS:OLD    
 FORMAT:FORMATTED              ACCESS:SEQUENTIAL          

 OPENING freyberg.riv
 FILE TYPE:RIV   UNIT   18   STATUS:OLD    
 FORMAT:FORMATTED              ACCESS:SEQUENTIAL          

 OPENING freyberg.oc
 FILE TYPE:OC   UNIT   14   STATUS:OLD    
 FORMAT:FORMATTED              ACCESS:SEQUENTIAL          

 OPENING freyberg.hds
 FILE TYPE:DATA   UNIT   51   STATUS:REPLACE
 FORMAT:FORMATTED              ACCESS:SEQUENTIAL          

 OPENING freyberg.ddn
 FILE TYPE:DATA(BINARY)   UNIT   52   STATUS:REPLACE
 FORMAT:UNFORMATTED            ACCESS:STREAM              

 OPENING freyberg.cbc
 FILE TYPE:DATA(BINARY)   UNIT   53   STATUS:REPLACE
 FORMAT:UNFORMATTED            ACCESS:STREAM              

 OPENING freyberg.pcg
 FILE TYPE:PCG   UNIT   32   STATUS:OLD    
 FORMAT:FORMATTED              ACCESS:SEQUENTIAL          

 BAS -- BASIC PACKAGE, VERSION 7, 5/2/2005 INPUT READ FROM UNIT   13

 MODFLOW was compiled using mixed precision
 Precision of REAL variables:           6
 Precision of DOUBLE PRECISION variables:          15

 DISCRETIZATION INPUT DATA READ FROM UNIT   11
 # Discretization file for MODFLOW, generated by Flopy.
    1 LAYERS        40 ROWS        20 COLUMNS
    3 STRESS PERIOD(S) IN SIMULATION
 MODEL TIME UNIT IS DAYS
 MODEL LENGTH UNIT IS METERS
  Confining bed flag for each layer:
   0



                               DELR
 READING ON UNIT   11 WITH FORMAT: (20G15.6)           



                               DELC
 READING ON UNIT   11 WITH FORMAT: (40G15.6)           

 TOP ELEVATION OF LAYER 1 =   35.0000    

 OPENING FILE ON UNIT   99:
 botm.ref                                                                                                                                                                                                



             MODEL LAYER BOTTOM EL. FOR LAYER   1
 READING ON UNIT   99 WITH FORMAT: (10E12.4)           


 STRESS PERIOD     LENGTH       TIME STEPS     MULTIPLIER FOR DELT    SS FLAG
 ----------------------------------------------------------------------------
        1         1.000000          1                    1.000         SS
        2         1825.000          1                    1.000         TR
        3         1.000000          1                    1.000         SS

 COMBINED STEADY-STATE AND TRANSIENT SIMULATION




 # Basic package file for MODFLOW, generated by Flopy.                           
 THE FREE FORMAT OPTION HAS BEEN SELECTED

 OPENING FILE ON UNIT   99:
 ibound.ref                                                                                                                                                                                              



                     BOUNDARY ARRAY FOR LAYER   1
 READING ON UNIT   99 WITH FORMAT: (25I3)              

 AQUIFER HEAD WILL BE SET TO  -999.99     AT ALL NO-FLOW NODES (IBOUND=0).

 OPENING FILE ON UNIT   99:
 strt.ref                                                                                                                                                                                                



                       INITIAL HEAD FOR LAYER   1
 READING ON UNIT   99 WITH FORMAT: (10E12.4)           
 # Output control package file for MODFLOW, generated by Flopy.

 OUTPUT CONTROL IS SPECIFIED ONLY AT TIME STEPS FOR WHICH OUTPUT IS DESIRED
 HEADS WILL BE SAVED WITH FORMAT: (20E15.6)           
 COMPACT CELL-BY-CELL BUDGET FILES WILL BE WRITTEN
 AUXILIARY DATA WILL BE SAVED IN CELL-BY-CELL BUDGET FILES
 HEAD PRINT FORMAT CODE IS   0    DRAWDOWN PRINT FORMAT CODE IS   0
 HEADS WILL BE SAVED ON UNIT   51    DRAWDOWNS WILL BE SAVED ON UNIT   52

 LPF -- LAYER-PROPERTY FLOW PACKAGE, VERSION 7, 5/2/2005
         INPUT READ FROM UNIT   31
 # UPW for MODFLOW-NWT, generated by Flopy.
 CELL-BY-CELL FLOWS WILL BE SAVED ON UNIT   53
 HEAD AT CELLS THAT CONVERT TO DRY= -1.00000E+30
 No named parameters

   LAYER FLAGS:
 LAYER       LAYTYP        LAYAVG         CHANI        LAYVKA        LAYWET
 ---------------------------------------------------------------------------
    1             1             0     1.000E+00             0             0

   INTERPRETATION OF LAYER FLAGS:
                        INTERBLOCK     HORIZONTAL    DATA IN
         LAYER TYPE   TRANSMISSIVITY   ANISOTROPY   ARRAY VKA   WETTABILITY
 LAYER      (LAYTYP)      (LAYAVG)       (CHANI)      (LAYVKA)      (LAYWET)
 ---------------------------------------------------------------------------
    1   CONVERTIBLE      HARMONIC     1.000E+00    VERTICAL K  NON-WETTABLE

 WETTING CAPABILITY IS NOT ACTIVE IN ANY LAYER

 OPENING FILE ON UNIT   99:
 hk_Layer_1.ref                                                                                                                                                                                          



              HYD. COND. ALONG ROWS FOR LAYER   1
 READING ON UNIT   99 WITH FORMAT: (20G15.6)           

      VERTICAL HYD. COND. =   1.00000     FOR LAYER   1

 OPENING FILE ON UNIT   99:
 ss_Layer_1.ref                                                                                                                                                                                          



                   SPECIFIC STORAGE FOR LAYER   1
 READING ON UNIT   99 WITH FORMAT: (20G15.6)           

           SPECIFIC YIELD =  4.711964E-02 FOR LAYER   1

 WEL -- WELL PACKAGE, VERSION 1.0.6, 12/05/2012 INPUT READ FROM UNIT   20
 # Well file for MODFLOW, generated by Flopy.
 No named parameters
 MAXIMUM OF      6 ACTIVE WELLS AT ONE TIME
 No named parameters


     0 Well parameters

 RIV -- RIVER PACKAGE, VERSION 7, 5/2/2005 INPUT READ FROM UNIT   18
 # RIV for MODFLOW, generated by Flopy.
 No named parameters
 MAXIMUM OF     40 ACTIVE RIVER REACHES AT ONE TIME


     0 River parameters

 RCH -- RECHARGE PACKAGE, VERSION 7, 5/2/2005 INPUT READ FROM UNIT   19
 # RCH for MODFLOW, generated by Flopy.
 No named parameters
 OPTION 3 -- RECHARGE TO HIGHEST ACTIVE NODE IN EACH VERTICAL COLUMN


     0 Recharge parameters

 PCG -- CONJUGATE-GRADIENT SOLUTION PACKAGE, VERSION 7, 5/2/2005
 MAXIMUM OF    100 CALLS OF SOLUTION ROUTINE
 MAXIMUM OF     25 INTERNAL ITERATIONS PER CALL TO SOLUTION ROUTINE
 MATRIX PRECONDITIONING TYPE :    1
 IHCOFADD option -- When an active cell is surrounded by dry cells, convert
 the cell to dry only if storage and head-dependent boundary flow are 0.



                                    SOLUTION BY THE CONJUGATE-GRADIENT METHOD
                                   -------------------------------------------
                    MAXIMUM NUMBER OF CALLS TO PCG ROUTINE =      100
                        MAXIMUM ITERATIONS PER CALL TO PCG =       25
                               MATRIX PRECONDITIONING TYPE =        1
        RELAXATION FACTOR (ONLY USED WITH PRECOND. TYPE 1) =    0.10000E+01
 PARAMETER OF POLYNOMIAL PRECOND. = 2 (2) OR IS CALCULATED :        2
                         HEAD CHANGE CRITERION FOR CLOSURE =    0.10000E-04
                     RESIDUAL CHANGE CRITERION FOR CLOSURE =    0.10000E+00
            PCG HEAD AND RESIDUAL CHANGE PRINTOUT INTERVAL =        5
     PRINTING FROM SOLVER IS LIMITED(1) OR SUPPRESSED (>1) =        0
                            STEADY-STATE DAMPING PARAMETER =    0.70000E+00
                               TRANSIENT DAMPING PARAMETER =    0.70000E+00
1
                            STRESS PERIOD NO.    1, LENGTH =   1.000000    
                            -----------------------------------------------

                              NUMBER OF TIME STEPS =     1

                               MULTIPLIER FOR DELT =     1.000

                            INITIAL TIME STEP SIZE =   1.000000    

 WELL NO.  LAYER   ROW   COL   STRESS RATE         
 --------------------------------------------------
      1      1      9     16       95.12    
      2      1     11     13       102.2    
      3      1     20     14       100.0    
      4      1     26     10       111.2    
      5      1     29      6       100.7    
      6      1     34     12       96.56    

      6 WELLS

 REACH NO.  LAYER   ROW   COL     STAGE      CONDUCTANCE     BOTTOM EL.         
 -------------------------------------------------------------------------------
      1      1      1     15       20.10           1246.           20.00    
      2      1      2     15       19.87           2413.           19.75    
      3      1      3     15       19.65           6069.           19.50    
      4      1      4     15       19.42           413.9           19.25    
      5      1      5     15       19.19           7243.           19.00    
      6      1      6     15       18.97          0.1581E+05       18.75    
      7      1      7     15       18.74          0.1436E+05       18.50    
      8      1      8     15       18.51           574.5           18.25    
      9      1      9     15       18.28           7955.           18.00    
     10      1     10     15       19.06          0.1794E+05       17.75    
     11      1     11     15       17.83           8427.           17.50    
     12      1     12     15       17.60           5108.           17.25    
     13      1     13     15       17.38          0.1594E+05       17.00    
     14      1     14     15       17.15           563.8           16.75    
     15      1     15     15       16.92          0.2339E+05       16.50    
     16      1     16     15       16.70          0.1526E+05       16.25    
     17      1     17     15       16.47           4652.           16.00    
     18      1     18     15       16.24           3907.           15.75    
     19      1     19     15       16.02           2225.           15.50    
     20      1     20     15       15.79           4034.           15.25    
     21      1     21     15       15.56           1483.           15.00    
     22      1     22     15       15.33          0.1757E+05       14.75    
     23      1     23     15       15.11           6111.           14.50    
     24      1     24     15       14.88           2657.           14.25    
     25      1     25     15       14.65           6474.           14.00    
     26      1     26     15       14.43           899.4           13.75    
     27      1     27     15       14.20           1696.           13.50    
     28      1     28     15       13.97           1297.           13.25    
     29      1     29     15       13.75           2769.           13.00    
     30      1     30     15       13.52          0.2138E+05       12.75    
     31      1     31     15       13.29           3795.           12.50    
     32      1     32     15       13.07           5153.           12.25    
     33      1     33     15       12.84           510.9           12.00    
     34      1     34     15       12.61           1757.           11.75    
     35      1     35     15       12.38          0.1081E+05       11.50    
     36      1     36     15       12.16           950.9           11.25    
     37      1     37     15       11.93           1442.           11.00    
     38      1     38     15       11.70           2154.           10.75    
     39      1     39     15       11.48           3055.           10.50    
     40      1     40     15       11.25           1624.           10.25    

     40 RIVER REACHES

 OPENING FILE ON UNIT   99:
 rech_0.ref                                                                                                                                                                                              



                           RECHARGE
 READING ON UNIT   99 WITH FORMAT: (20G15.6)           

 SOLVING FOR HEAD 


    15 CALLS TO PCG ROUTINE FOR TIME STEP   1 IN STRESS PERIOD    1
   238 TOTAL ITERATIONS

 MAXIMUM HEAD CHANGE FOR EACH ITERATION (1 INDICATES THE FIRST INNER ITERATION):

    HEAD CHANGE    HEAD CHANGE    HEAD CHANGE    HEAD CHANGE    HEAD CHANGE 
   LAYER,ROW,COL  LAYER,ROW,COL  LAYER,ROW,COL  LAYER,ROW,COL  LAYER,ROW,COL
 ---------------------------------------------------------------------------
  1  -49.75      0  -33.15      0   16.56      0   7.444      0   5.692    
   (  1, 39,  9)  (  1,  9,  2)  (  1, 35,  4)  (  1, 39, 13)  (  1, 39, 13)
  0   3.778      0  -1.199      0 -0.8669      0 -0.5208      0  0.2423    
   (  1, 23,  9)  (  1, 25,  3)  (  1, 17,  1)  (  1, 26,  2)  (  1, 38, 14)
  0 -0.2054      0  0.1335      0 -0.5945E-01  0 -0.4875E-01  0 -0.2282E-01
   (  1, 12,  2)  (  1,  9,  2)  (  1, 37,  5)  (  1, 33,  6)  (  1, 15,  3)
  0  0.1020E-01  0 -0.6924E-02  0 -0.3927E-02  0  0.3185E-02  0 -0.2212E-02
   (  1, 12,  1)  (  1,  7,  3)  (  1, 14,  1)  (  1,  9,  2)  (  1, 17, 12)
  0 -0.9205E-03  0  0.1024E-02  0 -0.6122E-03  0  0.2013E-03  0  0.1510E-03
   (  1,  9, 12)  (  1, 14,  2)  (  1, 14,  1)  (  1, 22,  2)  (  1, 12,  1)
  1   17.54      0  -15.35      0  -4.585      0  -2.305      0   2.297    
   (  1,  9,  2)  (  1,  9,  2)  (  1,  8,  5)  (  1,  8, 13)  (  1, 39, 13)
  0   1.100      0 -0.3951      0 -0.2747      0 -0.1828      0 -0.9212E-01
   (  1, 39, 13)  (  1, 25,  3)  (  1, 17,  1)  (  1, 31,  6)  (  1, 10,  2)
  0  0.5629E-01  0 -0.4448E-01  0  0.2607E-01  0 -0.1314E-01  0 -0.8790E-02
   (  1,  9,  3)  (  1, 13,  4)  (  1, 10,  2)  (  1, 35,  5)  (  1, 33,  6)
  0 -0.4186E-02  0  0.1908E-02  0  0.1572E-02  0  0.1178E-02  0 -0.7884E-03
   (  1, 28,  7)  (  1, 37, 13)  (  1,  9,  2)  (  1, 17, 12)  (  1, 17, 12)
  0 -0.3507E-03  0 -0.2327E-03  0  0.1500E-03  0  0.9795E-04  0 -0.6096E-04
   (  1,  8, 13)  (  1,  8,  2)  (  1,  2,  1)  (  1,  4,  6)  (  1,  4,  6)
  1   14.16      0  -9.174      0  -2.977      0  -1.342      0 -0.9551    
   (  1,  9,  2)  (  1,  9,  2)  (  1,  8,  5)  (  1,  8, 13)  (  1, 23,  9)
  0 -0.4752      0 -0.1445      0 -0.9040E-01  0  0.9443E-01  0 -0.3640E-01
   (  1, 28,  2)  (  1,  4,  6)  (  1, 24,  7)  (  1, 38, 14)  (  1,  3,  7)
  0 -0.3382E-01  0  0.1096E-01  0 -0.1189E-01  0 -0.7017E-02  0 -0.3764E-02
   (  1, 11,  2)  (  1,  9,  3)  (  1, 33,  7)  (  1, 37,  5)  (  1,  5,  8)
  0 -0.1645E-02  0 -0.8751E-03  0 -0.4165E-03  0 -0.4488E-03  0  0.3195E-03
   (  1, 28,  7)  (  1,  4,  9)  (  1,  8, 13)  (  1, 31,  9)  (  1,  9,  2)
  0 -0.2170E-03  0 -0.1330E-03  0 -0.6122E-04  0  0.3138E-04  0 -0.2118E-04
   (  1, 10,  2)  (  1,  2,  2)  (  1, 17, 12)  (  1, 25,  3)  (  1, 17, 12)
  1   2.179      0  -1.279      0 -0.5021      0 -0.2988      0 -0.3410    
   (  1, 25,  5)  (  1, 31,  9)  (  1,  9,  2)  (  1, 23,  9)  (  1,  9,  2)
  0 -0.2263      0 -0.7275E-01  0 -0.3989E-01  0 -0.3318E-01  0 -0.1587E-01
   (  1, 37,  5)  (  1,  4,  6)  (  1,  8,  5)  (  1, 27,  4)  (  1,  3,  7)
  0 -0.1023E-01  0 -0.4603E-02  0  0.4406E-02  0 -0.2520E-02  0 -0.1480E-02
   (  1,  8,  5)  (  1,  9,  3)  (  1,  9,  2)  (  1, 29,  6)  (  1, 33,  6)
  0 -0.7772E-03  0 -0.3858E-03  0 -0.2219E-03  0 -0.1354E-03  0  0.1296E-03
   (  1, 28,  7)  (  1, 28, 10)  (  1, 31,  9)  (  1, 16,  1)  (  1,  9,  3)
  0  0.1006E-03  0 -0.5836E-04  0 -0.3106E-04  0  0.2061E-04  0 -0.8513E-05
   (  1,  4,  6)  (  1, 10,  2)  (  1,  4,  6)  (  1,  4,  6)  (  1,  5,  8)
  1 -0.5858      0  0.8556      0 -0.3753      0 -0.1640      0 -0.1485    
   (  1,  9,  2)  (  1,  9,  2)  (  1,  8, 13)  (  1,  9, 12)  (  1, 23,  9)
  0 -0.8051E-01  0  0.2154E-01  0 -0.1473E-01  0 -0.1127E-01  0  0.4932E-02
   (  1, 37,  5)  (  1, 24,  8)  (  1,  8,  5)  (  1, 29,  6)  (  1, 38, 14)
  0  0.3939E-02  0 -0.4050E-02  0  0.1826E-02  0 -0.9486E-03  0 -0.5957E-03
   (  1,  9,  2)  (  1, 15,  3)  (  1, 17, 12)  (  1, 37,  5)  (  1, 33,  6)
  0 -0.3328E-03  0 -0.1320E-03  0  0.9424E-04  0 -0.9985E-04  0  0.4282E-04
   (  1,  4,  6)  (  1, 28, 10)  (  1,  9,  2)  (  1, 31,  9)  (  1,  8, 13)
  0 -0.3720E-04  0  0.2018E-04  0 -0.1375E-04  0  0.8594E-05  1 -0.3079    
   (  1, 31,  6)  (  1, 17, 12)  (  1,  4,  6)  (  1,  4,  6)  (  1,  9,  2)
  0  0.3247      0 -0.1358      0 -0.7372E-01  0 -0.5017E-01  0 -0.2680E-01
   (  1,  9,  2)  (  1,  8, 13)  (  1,  9, 12)  (  1, 23,  9)  (  1, 35,  4)
  0 -0.8469E-02  0 -0.5495E-02  0 -0.3057E-02  0  0.2193E-02  0 -0.1689E-02
   (  1, 29,  6)  (  1,  8,  5)  (  1, 23,  9)  (  1,  9,  2)  (  1,  9,  4)
  0 -0.1037E-02  0 -0.5320E-03  0 -0.3941E-03  0 -0.1663E-03  0 -0.1050E-03
   (  1, 34,  8)  (  1, 35,  4)  (  1, 29,  6)  (  1, 34,  6)  (  1,  4,  6)
  0  0.4843E-04  0 -0.3773E-04  0  0.3071E-04  0 -0.1640E-04  0 -0.1248E-04
   (  1, 17,  2)  (  1,  9,  3)  (  1, 11,  2)  (  1,  8, 13)  (  1, 31,  6)
  0  0.7097E-05  1 -0.7926E-01  0  0.8089E-01  0 -0.4020E-01  0 -0.2693E-01
   (  1, 17, 12)  (  1,  9,  2)  (  1,  9,  2)  (  1,  8, 13)  (  1,  9, 12)
  0 -0.1226E-01  0 -0.8836E-02  0 -0.2968E-02  0 -0.1907E-02  0 -0.1331E-02
   (  1, 34, 13)  (  1, 35,  4)  (  1, 31,  9)  (  1, 20,  4)  (  1, 23,  9)
  0 -0.7421E-03  0  0.2685E-03  0 -0.2739E-03  0 -0.2147E-03  0 -0.1369E-03
   (  1, 31, 10)  (  1, 21,  2)  (  1,  9,  3)  (  1, 32,  8)  (  1, 37,  5)
  0 -0.7218E-04  0 -0.3893E-04  0 -0.1552E-04  0 -0.1093E-04  0  0.4660E-05
   (  1, 33,  6)  (  1,  4,  6)  (  1, 17, 10)  (  1, 31,  9)  (  1, 11,  2)
  1  0.1845E-01  0  0.1567E-01  0 -0.7181E-02  0 -0.8470E-02  0 -0.4398E-02
   (  1,  8, 13)  (  1,  9,  2)  (  1,  9,  2)  (  1,  9, 12)  (  1, 29,  6)
  0 -0.2887E-02  0 -0.9663E-03  0 -0.6109E-03  0 -0.4597E-03  0 -0.1980E-03
   (  1, 35,  4)  (  1, 31,  9)  (  1, 20,  3)  (  1, 23,  9)  (  1, 31, 10)
  0  0.1254E-03  0 -0.9006E-04  0 -0.4953E-04  0 -0.3303E-04  0 -0.2071E-04
   (  1,  9,  2)  (  1,  9,  3)  (  1, 25,  6)  (  1, 37,  5)  (  1, 33,  6)
  0 -0.1040E-04  0 -0.4706E-05  1  0.5023E-02  0 -0.4939E-02  0 -0.2992E-02
   (  1,  4,  6)  (  1, 17, 10)  (  1, 29, 12)  (  1,  9,  2)  (  1,  8, 13)
  0 -0.2420E-02  0 -0.1491E-02  0 -0.9250E-03  0 -0.3552E-03  0 -0.1809E-03
   (  1, 23,  9)  (  1, 29,  6)  (  1, 35,  4)  (  1, 31,  9)  (  1, 24,  8)
  0 -0.1351E-03  0 -0.6485E-04  0 -0.3267E-04  0 -0.2185E-04  0 -0.1277E-04
   (  1, 23,  9)  (  1, 22, 12)  (  1,  9, 12)  (  1,  9,  3)  (  1, 10,  9)
  0  0.1064E-04  0 -0.7342E-05  1  0.2562E-02  0 -0.2448E-02  0 -0.8390E-03
   (  1,  8,  5)  (  1,  7,  3)  (  1,  9,  2)  (  1,  9,  2)  (  1,  8, 13)
  0 -0.6816E-03  0 -0.3858E-03  0 -0.2708E-03  0 -0.9600E-04  0 -0.5046E-04
   (  1, 23,  9)  (  1, 27,  4)  (  1, 35,  4)  (  1, 17, 12)  (  1, 23,  9)
  0 -0.3464E-04  0  0.2100E-04  0 -0.1694E-04  0 -0.9982E-05  1  0.9702E-03
   (  1, 24,  7)  (  1, 12,  1)  (  1,  9,  2)  (  1,  9, 12)  (  1,  9,  2)
  0 -0.8692E-03  0 -0.2318E-03  0 -0.2054E-03  0 -0.1139E-03  0 -0.7172E-04
   (  1,  9,  2)  (  1,  8, 13)  (  1, 14,  3)  (  1, 34, 14)  (  1, 35,  4)
  0 -0.2586E-04  0 -0.1701E-04  0 -0.1024E-04  0 -0.6585E-05  1  0.4147E-03
   (  1, 17, 12)  (  1, 31,  7)  (  1, 22, 12)  (  1,  9,  2)  (  1,  9,  2)
  0 -0.3581E-03  0  0.6242E-04  0 -0.7057E-04  0 -0.3831E-04  0 -0.2156E-04
   (  1,  9,  2)  (  1,  9, 12)  (  1, 12,  1)  (  1,  8, 13)  (  1, 31,  1)
  0 -0.6860E-05  1  0.1223E-03  0 -0.1029E-03  0  0.2298E-04  0 -0.1969E-04
   (  1, 20,  4)  (  1,  9,  2)  (  1,  9,  2)  (  1,  9, 12)  (  1,  9,  2)
  0 -0.1625E-04  0 -0.5934E-05  1  0.2493E-04  0 -0.2736E-04  0 -0.1218E-04
   (  1,  8, 13)  (  1,  9, 12)  (  1,  9,  2)  (  1,  9,  2)  (  1, 24,  8)
  0 -0.1046E-04  0 -0.3041E-05  1 -0.5071E-05
   (  1, 26, 14)  (  1,  8, 13)  (  1,  9, 12)

 MAXIMUM RESIDUAL FOR EACH ITERATION (1 INDICATES THE FIRST INNER ITERATION):

    RESIDUAL       RESIDUAL       RESIDUAL       RESIDUAL       RESIDUAL    
   LAYER,ROW,COL  LAYER,ROW,COL  LAYER,ROW,COL  LAYER,ROW,COL  LAYER,ROW,COL
 ---------------------------------------------------------------------------
  1   6120.      0  -4493.      0  -2489.      0  -2624.      0  -904.2    
   (  1, 30, 15)  (  1, 39, 13)  (  1, 39, 13)  (  1,  8, 13)  (  1, 23,  9)
  0  -512.1      0  -378.7      0  -229.9      0  -159.2      0  -110.6    
   (  1, 38, 14)  (  1, 38, 14)  (  1, 38, 14)  (  1, 39, 15)  (  1, 39, 15)
  0  -87.48      0  -72.66      0  -43.00      0  -23.21      0  -12.84    
   (  1, 39, 15)  (  1, 39, 15)  (  1, 39, 15)  (  1, 39, 15)  (  1, 39, 15)
  0  -8.243      0  -3.807      0  -2.106      0  -1.861      0  -1.127    
   (  1, 39, 15)  (  1, 39, 15)  (  1, 39, 15)  (  1, 39, 15)  (  1, 39, 15)
  0 -0.8138      0 -0.4455      0 -0.1930      0 -0.8113E-01  0 -0.4375E-01
   (  1, 39, 15)  (  1, 39, 15)  (  1, 39, 15)  (  1, 39, 15)  (  1, 39, 15)
  1   2543.      0   937.2      0   810.0      0  -489.2      0  -247.6    
   (  1,  9,  4)  (  1, 30, 15)  (  1,  8, 13)  (  1,  8, 13)  (  1, 23,  9)
  0  -113.3      0  -90.18      0  -55.91      0  -33.72      0  -25.17    
   (  1, 38, 14)  (  1, 38, 14)  (  1, 38, 14)  (  1, 39, 15)  (  1, 39, 15)
  0  -23.27      0  -16.77      0  -10.53      0  -6.648      0  -4.435    
   (  1, 39, 15)  (  1, 39, 15)  (  1, 39, 15)  (  1, 39, 15)  (  1, 39, 15)
  0  -2.324      0  -1.316      0  -1.159      0 -0.6128      0 -0.3536    
   (  1, 39, 15)  (  1, 39, 15)  (  1, 39, 15)  (  1, 39, 15)  (  1, 39, 15)
  0 -0.2594      0 -0.1539      0 -0.7462E-01  0 -0.3575E-01  0 -0.1687E-01
   (  1, 39, 15)  (  1, 39, 15)  (  1, 39, 15)  (  1, 39, 15)  (  1, 39, 15)
  1   2370.      0   668.0      0   436.2      0   128.2      0  -70.71    
   (  1, 30, 15)  (  1, 30, 15)  (  1,  8, 13)  (  1,  9, 12)  (  1, 23,  9)
  0  -29.31      0  -22.39      0  -15.68      0  -7.723      0  -5.789    
   (  1, 39, 11)  (  1, 38, 14)  (  1, 38, 14)  (  1, 39, 15)  (  1, 39, 15)
  0  -4.295      0  -4.025      0  -2.863      0  -1.897      0  -1.192    
   (  1, 39, 15)  (  1, 39, 15)  (  1, 39, 15)  (  1, 39, 15)  (  1, 39, 15)
  0 -0.7277      0 -0.4390      0 -0.3369      0 -0.2069      0 -0.1415    
   (  1, 39, 15)  (  1, 39, 15)  (  1, 39, 15)  (  1, 39, 15)  (  1, 39, 15)
  0 -0.1189      0 -0.6151E-01  0 -0.3381E-01  0 -0.1954E-01  0 -0.9944E-02
   (  1, 39, 15)  (  1, 39, 15)  (  1, 39, 15)  (  1, 39, 15)  (  1, 39, 15)
  1   442.0      0   111.9      0   78.87      0  -93.38      0  -32.04    
   (  1, 30, 15)  (  1, 30, 15)  (  1, 30, 15)  (  1,  8, 13)  (  1, 23,  9)
  0   10.05      0  -6.219      0  -4.398      0   2.398      0  -1.706    
   (  1, 30, 15)  (  1, 38, 14)  (  1, 38, 14)  (  1, 14, 13)  (  1, 39, 15)
  0  -1.194      0  -1.108      0 -0.8512      0 -0.5616      0 -0.3528    
   (  1, 39, 15)  (  1, 39, 15)  (  1, 39, 15)  (  1, 39, 15)  (  1, 39, 15)
  0 -0.2355      0 -0.1459      0 -0.9499E-01  0 -0.7221E-01  0 -0.6333E-01
   (  1, 39, 15)  (  1, 39, 15)  (  1, 39, 15)  (  1, 39, 15)  (  1, 39, 15)
  0 -0.4147E-01  0 -0.2425E-01  0 -0.1405E-01  0 -0.8423E-02  0 -0.4629E-02
   (  1, 39, 15)  (  1, 39, 15)  (  1, 39, 15)  (  1, 39, 15)  (  1, 39, 15)
  1   340.2      0   142.8      0   49.43      0  -33.91      0  -14.50    
   (  1, 30, 15)  (  1, 30, 15)  (  1, 30, 15)  (  1,  9, 12)  (  1, 23,  9)
  0   3.910      0   2.353      0   1.528      0  0.9753      0   1.057    
   (  1, 30, 15)  (  1, 13, 15)  (  1, 14, 13)  (  1, 13, 15)  (  1,  8,  5)
  0  0.6296      0  0.3715      0 -0.2603      0 -0.1741      0 -0.1121    
   (  1, 14, 13)  (  1, 14, 13)  (  1, 39, 15)  (  1, 39, 15)  (  1, 39, 15)
  0 -0.7530E-01  0 -0.4876E-01  0 -0.4504E-01  0 -0.2871E-01  0 -0.2270E-01
   (  1, 39, 15)  (  1, 39, 15)  (  1, 39, 15)  (  1, 39, 15)  (  1, 39, 15)
  0 -0.1354E-01  0 -0.8475E-02  0 -0.4738E-02  0 -0.2859E-02  1   151.1    
   (  1, 39, 15)  (  1, 39, 15)  (  1, 39, 15)  (  1, 39, 15)  (  1, 30, 15)
  0   56.46      0   24.69      0   12.40      0  -4.595      0   1.470    
   (  1, 30, 15)  (  1, 30, 15)  (  1, 30, 15)  (  1, 23,  9)  (  1, 30, 15)
  0  0.9003      0  0.6131      0  0.3808      0 -0.3284      0  0.2691    
   (  1, 13, 15)  (  1, 14, 13)  (  1, 13, 15)  (  1,  8,  5)  (  1, 14, 13)
  0  0.1002      0 -0.7115E-01  0 -0.4986E-01  0 -0.3483E-01  0 -0.2349E-01
   (  1, 13, 15)  (  1, 39, 15)  (  1, 39, 15)  (  1, 39, 15)  (  1, 39, 15)
  0 -0.1535E-01  0 -0.1188E-01  0 -0.9602E-02  0 -0.7376E-02  0 -0.4435E-02
   (  1, 39, 15)  (  1, 39, 15)  (  1, 39, 15)  (  1, 39, 15)  (  1, 39, 15)
  0 -0.2754E-02  1   39.03      0   20.45      0   10.34      0   4.594    
   (  1, 39, 15)  (  1, 30, 15)  (  1, 30, 15)  (  1, 30, 15)  (  1, 30, 15)
  0   1.377      0  0.5234      0  0.3113      0  0.2113      0  0.1382    
   (  1, 30, 15)  (  1, 30, 15)  (  1, 13, 15)  (  1, 14, 13)  (  1, 13, 15)
  0  0.8567E-01  0  0.5039E-01  0  0.3830E-01  0 -0.2388E-01  0 -0.1618E-01
   (  1, 14, 13)  (  1, 14, 13)  (  1, 14, 13)  (  1, 39, 15)  (  1, 39, 15)
  0 -0.1090E-01  0 -0.7188E-02  0 -0.4700E-02  0 -0.3104E-02  0 -0.2556E-02
   (  1, 39, 15)  (  1, 39, 15)  (  1, 39, 15)  (  1, 39, 15)  (  1, 39, 15)
  1   9.069      0   5.954      0   3.821      0   1.585      0  0.4582    
   (  1, 30, 15)  (  1, 30, 15)  (  1, 30, 15)  (  1, 30, 15)  (  1, 30, 15)
  0  0.1741      0  0.1014      0  0.7184E-01  0  0.4669E-01  0  0.3428E-01
   (  1, 30, 15)  (  1, 13, 15)  (  1, 13, 15)  (  1, 13, 15)  (  1,  8,  5)
  0  0.2477E-01  0  0.1144E-01  0  0.7064E-02  0 -0.4801E-02  0 -0.3287E-02
   (  1, 14, 13)  (  1, 13, 15)  (  1, 13, 15)  (  1, 39, 15)  (  1, 39, 15)
  0 -0.2152E-02  0 -0.1502E-02  1   3.399      0   2.326      0   1.343    
   (  1, 39, 15)  (  1, 39, 15)  (  1, 30, 15)  (  1, 30, 15)  (  1, 30, 15)
  0  0.5343      0  0.1484      0  0.5506E-01  0  0.3131E-01  0  0.2286E-01
   (  1, 30, 15)  (  1, 30, 15)  (  1, 30, 15)  (  1, 13, 15)  (  1, 13, 15)
  0  0.1464E-01  0  0.8387E-02  0  0.3760E-02  0  0.3267E-02  0  0.2181E-02
   (  1, 13, 15)  (  1, 14, 13)  (  1, 13, 15)  (  1, 13, 15)  (  1, 13, 15)
  0 -0.1410E-02  0 -0.9743E-03  1   1.539      0  0.7883      0  0.4534    
   (  1, 39, 15)  (  1, 39, 15)  (  1, 30, 15)  (  1, 30, 15)  (  1, 30, 15)
  0  0.1788      0  0.4816E-01  0  0.1744E-01  0  0.9780E-02  0  0.6650E-02
   (  1, 30, 15)  (  1, 30, 15)  (  1, 30, 15)  (  1, 13, 15)  (  1, 13, 15)
  0  0.4189E-02  0 -0.3636E-02  0  0.2316E-02  0  0.1144E-02  1  0.5778    
   (  1, 13, 15)  (  1,  8,  5)  (  1, 14, 13)  (  1, 13, 15)  (  1, 30, 15)
  0  0.2553      0  0.1497      0  0.5761E-01  0  0.1534E-01  0  0.5781E-02
   (  1, 30, 15)  (  1, 30, 15)  (  1, 30, 15)  (  1, 30, 15)  (  1, 15, 15)
  0  0.3480E-02  0  0.2219E-02  0  0.1261E-02  0  0.1122E-02  1  0.3195    
   (  1, 13, 15)  (  1, 13, 15)  (  1, 13, 15)  (  1,  8,  5)  (  1, 30, 15)
  0  0.8185E-01  0  0.4881E-01  0  0.1826E-01  0  0.4793E-02  0  0.1667E-02
   (  1, 30, 15)  (  1, 30, 15)  (  1, 30, 15)  (  1, 30, 15)  (  1, 15, 15)
  0  0.1032E-02  1  0.9586E-01  0  0.3400E-01  0  0.1758E-01  0  0.8048E-02
   (  1, 23,  9)  (  1, 30, 15)  (  1, 30, 15)  (  1, 30, 15)  (  1, 30, 15)
  0  0.1558E-02  0  0.6362E-03  1  0.2689E-01  0  0.1471E-01  0  0.6918E-02
   (  1, 30, 15)  (  1, 30, 15)  (  1, 30, 15)  (  1, 30, 15)  (  1, 30, 15)
  0  0.1339E-02  0  0.5457E-03  1  0.1475E-01
   (  1,  8, 13)  (  1, 30, 15)  (  1, 30, 15)



 OUTPUT CONTROL FOR STRESS PERIOD    1   TIME STEP    1
    SAVE HEAD FOR ALL LAYERS
    SAVE BUDGET
 UBDSV2 SAVING "   CONSTANT HEAD" ON UNIT  53 AT TIME STEP  1, STRESS PERIOD   1
 UBDSV1 SAVING "FLOW RIGHT FACE " ON UNIT  53 AT TIME STEP  1, STRESS PERIOD   1
 UBDSV1 SAVING "FLOW FRONT FACE " ON UNIT  53 AT TIME STEP  1, STRESS PERIOD   1

 HEAD WILL BE SAVED ON UNIT   51 AT END OF TIME STEP    1, STRESS PERIOD    1
1
  VOLUMETRIC BUDGET FOR ENTIRE MODEL AT END OF TIME STEP    1, STRESS PERIOD   1
  ------------------------------------------------------------------------------

     CUMULATIVE VOLUMES      L**3       RATES FOR THIS TIME STEP      L**3/T
     ------------------                 ------------------------

           IN:                                      IN:
           ---                                      ---
             STORAGE =           0.0000               STORAGE =           0.0000
       CONSTANT HEAD =           0.0000         CONSTANT HEAD =           0.0000
               WELLS =         605.8423                 WELLS =         605.8423
       RIVER LEAKAGE =         364.8167         RIVER LEAKAGE =         364.8167
            RECHARGE =        5661.9419              RECHARGE =        5661.9419

            TOTAL IN =        6632.6011              TOTAL IN =        6632.6011

          OUT:                                     OUT:
          ----                                     ----
             STORAGE =           0.0000               STORAGE =           0.0000
       CONSTANT HEAD =         477.0528         CONSTANT HEAD =         477.0528
               WELLS =           0.0000                 WELLS =           0.0000
       RIVER LEAKAGE =        6155.8096         RIVER LEAKAGE =        6155.8096
            RECHARGE =           0.0000              RECHARGE =           0.0000

           TOTAL OUT =        6632.8623             TOTAL OUT =        6632.8623

            IN - OUT =          -0.2612              IN - OUT =          -0.2612

 PERCENT DISCREPANCY =          -0.00     PERCENT DISCREPANCY =          -0.00






         TIME SUMMARY AT END OF TIME STEP    1 IN STRESS PERIOD    1
                    SECONDS     MINUTES      HOURS       DAYS        YEARS
                    -----------------------------------------------------------
   TIME STEP LENGTH  86400.      1440.0      24.000      1.0000     2.73785E-03
 STRESS PERIOD TIME  86400.      1440.0      24.000      1.0000     2.73785E-03
         TOTAL TIME  86400.      1440.0      24.000      1.0000     2.73785E-03
1
1
                            STRESS PERIOD NO.    2, LENGTH =   1825.000    
                            -----------------------------------------------

                              NUMBER OF TIME STEPS =     1

                               MULTIPLIER FOR DELT =     1.000

                            INITIAL TIME STEP SIZE =   1825.000    

 WELL NO.  LAYER   ROW   COL   STRESS RATE         
 --------------------------------------------------
      1      1      9     16       68.99    
      2      1     11     13       131.3    
      3      1     20     14       90.77    
      4      1     26     10       94.22    
      5      1     29      6       62.76    
      6      1     34     12       101.4    

      6 WELLS

 REUSING NON-PARAMETER RIVER REACHES FROM LAST STRESS PERIOD

     40 RIVER REACHES

 OPENING FILE ON UNIT   99:
 rech_1.ref                                                                                                                                                                                              



                           RECHARGE
 READING ON UNIT   99 WITH FORMAT: (20G15.6)           

 SOLVING FOR HEAD 


    10 CALLS TO PCG ROUTINE FOR TIME STEP   1 IN STRESS PERIOD    2
    97 TOTAL ITERATIONS

 MAXIMUM HEAD CHANGE FOR EACH ITERATION (1 INDICATES THE FIRST INNER ITERATION):

    HEAD CHANGE    HEAD CHANGE    HEAD CHANGE    HEAD CHANGE    HEAD CHANGE 
   LAYER,ROW,COL  LAYER,ROW,COL  LAYER,ROW,COL  LAYER,ROW,COL  LAYER,ROW,COL
 ---------------------------------------------------------------------------
  1  -1.117      0 -0.2452      0 -0.1021      0 -0.7426E-01  0 -0.3299E-01
   (  1, 29,  6)  (  1, 23,  9)  (  1,  9,  2)  (  1,  8,  5)  (  1,  8, 13)
  0 -0.1639E-01  0  0.1209E-01  0  0.6997E-02  0  0.3982E-02  0  0.1526E-02
   (  1, 23,  5)  (  1,  9, 12)  (  1,  8, 13)  (  1, 23,  9)  (  1, 29,  6)
  0  0.1064E-02  0 -0.3562E-03  0  0.2046E-03  0  0.6714E-04  0  0.3050E-04
   (  1, 18, 10)  (  1,  1,  3)  (  1, 31,  9)  (  1, 31,  2)  (  1, 37,  5)
  0 -0.1549E-04  0  0.6686E-05  1 -0.2245      0 -0.5648E-01  0  0.3169E-01
   (  1, 37,  5)  (  1, 37,  5)  (  1, 29,  6)  (  1,  9,  4)  (  1,  9, 12)
  0 -0.1544E-01  0 -0.8478E-02  0 -0.6690E-02  0 -0.3296E-02  0  0.2284E-02
   (  1,  1,  4)  (  1, 24,  7)  (  1,  8,  5)  (  1,  9,  2)  (  1, 23,  9)
  0  0.1045E-02  0 -0.4969E-03  0  0.3018E-03  0  0.9498E-04  0  0.4820E-04
   (  1, 24,  8)  (  1,  3,  1)  (  1, 18, 10)  (  1, 30, 11)  (  1, 31,  9)
  0  0.1822E-04  0  0.1003E-04  0 -0.3040E-05  1 -0.5599E-01  0 -0.1435E-01
   (  1, 31,  7)  (  1, 37,  5)  (  1, 28, 10)  (  1,  8, 13)  (  1, 24,  8)
  0  0.1055E-01  0 -0.6390E-02  0 -0.3669E-02  0  0.1815E-02  0 -0.1048E-02
   (  1,  9, 12)  (  1, 23,  9)  (  1, 24,  8)  (  1, 17, 12)  (  1,  9,  2)
  0 -0.5295E-03  0  0.2964E-03  0 -0.1318E-03  0  0.8299E-04  0  0.2761E-04
   (  1, 17, 12)  (  1, 17, 12)  (  1,  4,  4)  (  1, 18, 10)  (  1, 22, 12)
  0  0.1383E-04  0  0.4522E-05  1 -0.1540E-01  0 -0.4556E-02  0  0.2798E-02
   (  1, 31,  9)  (  1, 33,  6)  (  1,  8, 13)  (  1, 24,  8)  (  1,  9, 12)
  0 -0.2360E-02  0 -0.1025E-02  0  0.5665E-03  0 -0.3259E-03  0  0.1119E-03
   (  1, 23,  9)  (  1, 24,  8)  (  1, 17, 12)  (  1, 17, 12)  (  1, 17, 12)
  0 -0.6779E-04  0 -0.4256E-04  0  0.1921E-04  0  0.8586E-05  1 -0.4070E-02
   (  1,  9,  4)  (  1,  8,  5)  (  1, 18, 10)  (  1, 10,  9)  (  1,  8, 13)
  0 -0.1370E-02  0 -0.6791E-03  0 -0.7578E-03  0 -0.2585E-03  0  0.1529E-03
   (  1,  9, 12)  (  1, 10, 10)  (  1, 23,  9)  (  1,  8, 13)  (  1, 17, 12)
  0 -0.7995E-04  0  0.4990E-04  0  0.2746E-04  0 -0.1379E-04  0  0.5018E-05
   (  1,  8,  5)  (  1,  8,  5)  (  1,  3, 13)  (  1, 17, 12)  (  1,  2,  2)
  1 -0.1037E-02  0 -0.4729E-03  0 -0.2056E-03  0 -0.2353E-03  0  0.1094E-03
   (  1,  8, 13)  (  1,  9, 12)  (  1, 10, 10)  (  1, 23,  9)  (  1,  4,  6)
  0  0.4517E-04  0  0.2819E-04  0  0.1877E-04  0  0.9000E-05  1 -0.2484E-03
   (  1,  8,  5)  (  1,  9,  4)  (  1, 22, 11)  (  1,  3, 13)  (  1,  8, 13)
  0 -0.1485E-03  0 -0.7887E-04  0 -0.7193E-04  0  0.3698E-04  0  0.1711E-04
   (  1,  9, 12)  (  1,  8, 13)  (  1, 23,  9)  (  1,  4,  6)  (  1,  8,  5)
  0  0.1071E-04  0  0.6474E-05  1  0.6946E-04  0 -0.4349E-04  0 -0.2777E-04
   (  1,  9,  3)  (  1,  4,  6)  (  1,  7,  8)  (  1,  9, 12)  (  1,  8, 13)
  0 -0.2169E-04  0  0.1043E-04  0  0.5542E-05  1  0.2319E-04  0 -0.1268E-04
   (  1, 23,  9)  (  1,  7,  8)  (  1,  8,  5)  (  1, 24,  8)  (  1,  9, 12)
  0 -0.9046E-05  1  0.8578E-05
   (  1,  8, 13)  (  1, 24,  8)

 MAXIMUM RESIDUAL FOR EACH ITERATION (1 INDICATES THE FIRST INNER ITERATION):

    RESIDUAL       RESIDUAL       RESIDUAL       RESIDUAL       RESIDUAL    
   LAYER,ROW,COL  LAYER,ROW,COL  LAYER,ROW,COL  LAYER,ROW,COL  LAYER,ROW,COL
 ---------------------------------------------------------------------------
  1  -42.67      0   25.73      0   19.70      0   10.47      0  -6.644    
   (  1, 17, 12)  (  1, 13, 15)  (  1,  8,  5)  (  1,  8, 13)  (  1,  8, 13)
  0  -3.164      0  -2.125      0  0.7093      0  0.3645      0  0.1942    
   (  1,  9, 12)  (  1,  8,  5)  (  1,  1, 15)  (  1,  1, 15)  (  1,  1, 15)
  0  0.9865E-01  0  0.4466E-01  0  0.1896E-01  0  0.8136E-02  0  0.3243E-02
   (  1,  1, 15)  (  1,  1, 15)  (  1,  1, 15)  (  1,  1, 15)  (  1,  1, 15)
  0  0.1454E-02  0  0.5850E-03  1   11.33      0  -10.70      0   6.262    
   (  1,  1, 15)  (  1,  1, 15)  (  1, 16, 13)  (  1,  9, 12)  (  1,  9, 12)
  0   2.285      0   1.754      0 -0.9031      0 -0.4257      0  0.2414    
   (  1,  5, 15)  (  1,  8,  5)  (  1, 14, 13)  (  1, 14, 13)  (  1,  5, 15)
  0  0.1073      0  0.5457E-01  0  0.2711E-01  0  0.1086E-01  0  0.5150E-02
   (  1,  5, 15)  (  1,  1, 15)  (  1, 12, 15)  (  1,  1, 15)  (  1,  1, 15)
  0  0.2452E-02  0  0.9141E-03  0 -0.5957E-03  1  -3.976      0  -3.895    
   (  1,  1, 15)  (  1,  1, 15)  (  1,  8, 13)  (  1,  8, 13)  (  1,  9, 12)
  0   1.816      0 -0.8971      0  0.4736      0 -0.2444      0  0.1828    
   (  1, 13, 15)  (  1, 23,  9)  (  1,  5, 15)  (  1, 14, 13)  (  1,  8,  5)
  0  0.9487E-01  0  0.4329E-01  0  0.1933E-01  0  0.9168E-02  0  0.3268E-02
   (  1,  5, 15)  (  1,  5, 15)  (  1,  5, 15)  (  1, 12, 15)  (  1,  1, 15)
  0  0.1293E-02  0  0.6230E-03  1  -1.402      0  -1.136      0  0.6085    
   (  1,  1, 15)  (  1,  1, 15)  (  1,  8, 13)  (  1,  9, 12)  (  1, 13, 15)
  0  0.3048      0  0.1539      0  0.7727E-01  0  0.4098E-01  0  0.2095E-01
   (  1,  5, 15)  (  1,  5, 15)  (  1,  5, 15)  (  1,  5, 15)  (  1,  5, 15)
  0  0.1270E-01  0  0.6621E-02  0  0.2999E-02  0  0.1080E-02  1 -0.4658    
   (  1,  8,  5)  (  1,  5, 15)  (  1,  5, 15)  (  1, 12, 15)  (  1,  8, 13)
  0 -0.3169      0  0.1966      0  0.1044      0  0.4706E-01  0  0.2568E-01
   (  1,  9, 12)  (  1, 13, 15)  (  1, 13, 15)  (  1,  5, 15)  (  1,  5, 15)
  0  0.1714E-01  0  0.9267E-02  0  0.4297E-02  0  0.2046E-02  0  0.9284E-03
   (  1,  5, 15)  (  1,  5, 15)  (  1,  5, 15)  (  1,  5, 15)  (  1,  5, 15)
  1 -0.1485      0 -0.8751E-01  0  0.6179E-01  0  0.3355E-01  0  0.1371E-01
   (  1,  8, 13)  (  1,  9, 12)  (  1, 13, 15)  (  1, 13, 15)  (  1,  5, 15)
  0  0.8766E-02  0  0.5216E-02  0  0.2569E-02  0  0.1148E-02  1 -0.4546E-01
   (  1,  8,  5)  (  1,  5, 15)  (  1,  5, 15)  (  1,  5, 15)  (  1,  8, 13)
  0  0.2580E-01  0  0.1909E-01  0  0.1059E-01  0 -0.4617E-02  0  0.2449E-02
   (  1, 13, 15)  (  1, 13, 15)  (  1, 13, 15)  (  1,  8,  5)  (  1,  5, 15)
  0 -0.1457E-02  0  0.6905E-03  1  0.1481E-01  0  0.7920E-02  0  0.5769E-02
   (  1, 14, 13)  (  1,  5, 15)  (  1,  9, 12)  (  1, 13, 15)  (  1, 13, 15)
  0  0.3299E-02  0 -0.1460E-02  0  0.6785E-03  1  0.5103E-02  0  0.2556E-02
   (  1, 13, 15)  (  1,  8,  5)  (  1,  5, 15)  (  1,  9, 12)  (  1, 28, 15)
  0  0.1793E-02  1  0.1828E-02
   (  1, 13, 15)  (  1, 33, 15)



 OUTPUT CONTROL FOR STRESS PERIOD    2   TIME STEP    1
    SAVE HEAD FOR ALL LAYERS
    SAVE BUDGET
 UBDSV1 SAVING "         STORAGE" ON UNIT  53 AT TIME STEP  1, STRESS PERIOD   2
 UBDSV2 SAVING "   CONSTANT HEAD" ON UNIT  53 AT TIME STEP  1, STRESS PERIOD   2
 UBDSV1 SAVING "FLOW RIGHT FACE " ON UNIT  53 AT TIME STEP  1, STRESS PERIOD   2
 UBDSV1 SAVING "FLOW FRONT FACE " ON UNIT  53 AT TIME STEP  1, STRESS PERIOD   2

 HEAD WILL BE SAVED ON UNIT   51 AT END OF TIME STEP    1, STRESS PERIOD    2
1
  VOLUMETRIC BUDGET FOR ENTIRE MODEL AT END OF TIME STEP    1, STRESS PERIOD   2
  ------------------------------------------------------------------------------

     CUMULATIVE VOLUMES      L**3       RATES FOR THIS TIME STEP      L**3/T
     ------------------                 ------------------------

           IN:                                      IN:
           ---                                      ---
             STORAGE =     1542892.7500               STORAGE =         845.4207
       CONSTANT HEAD =           0.0000         CONSTANT HEAD =           0.0000
               WELLS =     1003447.4375                 WELLS =         549.5023
       RIVER LEAKAGE =      723820.6250         RIVER LEAKAGE =         396.4142
            RECHARGE =     6301545.0000              RECHARGE =        3449.7988

            TOTAL IN =     9571706.0000              TOTAL IN =        5241.1357

          OUT:                                     OUT:
          ----                                     ----
             STORAGE =           0.0000               STORAGE =           0.0000
       CONSTANT HEAD =      662117.0625         CONSTANT HEAD =         362.5424
               WELLS =           0.0000                 WELLS =           0.0000
       RIVER LEAKAGE =     8909704.0000         RIVER LEAKAGE =        4878.6562
            RECHARGE =           0.0000              RECHARGE =           0.0000

           TOTAL OUT =     9571821.0000             TOTAL OUT =        5241.1987

            IN - OUT =        -115.0000              IN - OUT =      -6.2988E-02

 PERCENT DISCREPANCY =          -0.00     PERCENT DISCREPANCY =          -0.00






         TIME SUMMARY AT END OF TIME STEP    1 IN STRESS PERIOD    2
                    SECONDS     MINUTES      HOURS       DAYS        YEARS
                    -----------------------------------------------------------
   TIME STEP LENGTH 1.57680E+08 2.62800E+06  43800.      1825.0      4.9966    
 STRESS PERIOD TIME 1.57680E+08 2.62800E+06  43800.      1825.0      4.9966    
         TOTAL TIME 1.57766E+08 2.62944E+06  43824.      1826.0      4.9993    
1
1
                            STRESS PERIOD NO.    3, LENGTH =   1.000000    
                            -----------------------------------------------

                              NUMBER OF TIME STEPS =     1

                               MULTIPLIER FOR DELT =     1.000

                            INITIAL TIME STEP SIZE =   1.000000    

 WELL NO.  LAYER   ROW   COL   STRESS RATE         
 --------------------------------------------------
      1      1      9     16       68.99    
      2      1     11     13       131.3    
      3      1     20     14       90.77    
      4      1     26     10       94.22    
      5      1     29      6       62.76    
      6      1     34     12       101.4    

      6 WELLS

 REUSING NON-PARAMETER RIVER REACHES FROM LAST STRESS PERIOD

     40 RIVER REACHES

 OPENING FILE ON UNIT   99:
 rech_2.ref                                                                                                                                                                                              



                           RECHARGE
 READING ON UNIT   99 WITH FORMAT: (20G15.6)           

 SOLVING FOR HEAD 


    10 CALLS TO PCG ROUTINE FOR TIME STEP   1 IN STRESS PERIOD    3
   135 TOTAL ITERATIONS

 MAXIMUM HEAD CHANGE FOR EACH ITERATION (1 INDICATES THE FIRST INNER ITERATION):

    HEAD CHANGE    HEAD CHANGE    HEAD CHANGE    HEAD CHANGE    HEAD CHANGE 
   LAYER,ROW,COL  LAYER,ROW,COL  LAYER,ROW,COL  LAYER,ROW,COL  LAYER,ROW,COL
 ---------------------------------------------------------------------------
  1 -0.8444      0  -1.325      0 -0.6966      0 -0.4463      0 -0.3298    
   (  1,  9,  2)  (  1,  8,  5)  (  1,  1,  5)  (  1,  1,  5)  (  1, 23,  1)
  0 -0.3058      0 -0.9740E-01  0  0.3233E-01  0 -0.3487E-01  0  0.1999E-01
   (  1,  1,  8)  (  1, 15,  2)  (  1, 24,  8)  (  1,  9,  2)  (  1,  9,  4)
  0 -0.1816E-01  0  0.8849E-02  0 -0.9377E-02  0 -0.2709E-02  0 -0.1750E-02
   (  1,  4,  6)  (  1, 17, 12)  (  1,  5,  8)  (  1,  4,  1)  (  1, 16,  1)
  0  0.6920E-03  0 -0.5828E-03  0  0.3932E-03  0  0.2607E-03  0  0.2100E-03
   (  1,  9, 10)  (  1, 10,  2)  (  1,  9,  2)  (  1,  9, 12)  (  1, 28, 10)
  0 -0.1757E-03  0  0.5540E-04  0 -0.3301E-04  0  0.1340E-04  0  0.1205E-04
   (  1,  4,  6)  (  1, 37,  5)  (  1, 37,  5)  (  1, 29,  9)  (  1,  9,  3)
  1 -0.9351E-01  0 -0.1602      0 -0.1039      0  0.2338E-01  0 -0.2592E-01
   (  1,  5,  9)  (  1,  9,  3)  (  1,  8,  5)  (  1,  9, 12)  (  1,  4,  6)
  0 -0.2546E-01  0  0.1108E-01  0 -0.6278E-02  0  0.2916E-02  0 -0.2651E-02
   (  1,  8,  5)  (  1, 17, 10)  (  1, 24,  7)  (  1, 30, 11)  (  1,  9,  2)
  0 -0.3626E-02  0  0.1048E-02  0  0.7583E-03  0 -0.5214E-03  0  0.3492E-03
   (  1,  4,  6)  (  1, 35,  4)  (  1, 29,  6)  (  1, 12,  1)  (  1, 15,  3)
  0  0.1522E-03  0  0.6162E-04  0 -0.5681E-04  0  0.2731E-04  0  0.2551E-04
   (  1, 17, 12)  (  1,  9,  3)  (  1,  9,  2)  (  1,  8, 13)  (  1, 17, 10)
  0 -0.2362E-04  0  0.1088E-04  0 -0.5609E-05  1  0.3402E-01  0  0.2896E-01
   (  1,  4,  6)  (  1,  4,  6)  (  1, 10,  2)  (  1,  9,  2)  (  1,  8,  5)
  0 -0.2266E-01  0 -0.1185E-01  0  0.9674E-02  0  0.1222E-01  0  0.5594E-02
   (  1,  9,  9)  (  1, 10,  9)  (  1, 23,  1)  (  1,  4,  6)  (  1, 14,  1)
  0 -0.2139E-02  0  0.2039E-02  0 -0.1081E-02  0  0.9372E-03  0  0.5263E-03
   (  1, 24,  8)  (  1, 11,  2)  (  1,  9,  3)  (  1, 24,  1)  (  1, 15,  3)
  0  0.3169E-03  0  0.1657E-03  0  0.1213E-03  0  0.5516E-04  0  0.2816E-04
   (  1, 25,  5)  (  1,  2,  2)  (  1,  2,  9)  (  1,  4,  6)  (  1,  9,  3)
  0  0.2018E-04  0  0.1894E-04  0  0.1101E-04  0  0.5989E-05  1  0.1189E-01
   (  1,  8, 13)  (  1,  4,  1)  (  1, 20,  3)  (  1, 30, 11)  (  1,  9,  2)
  0  0.9771E-02  0 -0.5759E-02  0  0.4068E-02  0  0.4116E-02  0  0.4255E-02
   (  1,  8,  5)  (  1,  9, 12)  (  1,  1,  5)  (  1,  1,  8)  (  1,  4,  6)
  0  0.1505E-02  0  0.6895E-03  0  0.4182E-03  0 -0.2445E-03  0  0.2495E-03
   (  1, 19,  4)  (  1, 25,  3)  (  1,  3,  1)  (  1,  9,  3)  (  1, 24,  1)
  0  0.1228E-03  0  0.7241E-04  0  0.5841E-04  0  0.3152E-04  0  0.1169E-04
   (  1,  1, 12)  (  1,  1, 12)  (  1,  3,  2)  (  1,  2,  9)  (  1, 17, 10)
  0  0.1116E-04  0 -0.4779E-05  1  0.2723E-02  0 -0.1365E-02  0  0.1890E-02
   (  1,  7,  1)  (  1,  9,  2)  (  1,  9,  3)  (  1,  9, 12)  (  1,  9,  3)
  0  0.8779E-03  0  0.1240E-02  0  0.1008E-02  0  0.3235E-03  0  0.1928E-03
   (  1,  1,  5)  (  1,  1,  8)  (  1,  4,  6)  (  1,  1,  8)  (  1, 25,  1)
  0  0.1164E-03  0  0.7212E-04  0  0.2702E-04  0 -0.3959E-04  0  0.1775E-04
   (  1,  1, 12)  (  1,  1, 12)  (  1,  9,  2)  (  1,  9,  4)  (  1,  3,  1)
  0  0.1353E-04  0  0.4941E-05  1 -0.4562E-03  0  0.7791E-03  0 -0.3867E-03
   (  1,  4,  6)  (  1, 28,  1)  (  1,  9,  2)  (  1,  9,  3)  (  1,  9, 12)
  0  0.2644E-03  0  0.2955E-03  0  0.1650E-03  0  0.7183E-04  0  0.5092E-04
   (  1,  9,  4)  (  1,  1,  8)  (  1,  4,  6)  (  1, 26,  8)  (  1, 26,  2)
  0  0.3011E-04  0 -0.1839E-04  0  0.2045E-04  0  0.9481E-05  1 -0.1602E-03
   (  1,  4,  6)  (  1,  9,  4)  (  1,  9,  2)  (  1,  3,  7)  (  1,  9,  2)
  0  0.1658E-03  0  0.1128E-03  0  0.8095E-04  0  0.6233E-04  0 -0.3883E-04
   (  1, 29,  6)  (  1, 23,  9)  (  1,  9,  4)  (  1,  1,  8)  (  1, 15,  3)
  0  0.2184E-04  0  0.1671E-04  0  0.6387E-05  1 -0.5063E-04  0  0.4523E-04
   (  1, 27, 10)  (  1,  6,  9)  (  1,  4,  6)  (  1,  9,  2)  (  1, 24,  7)
  0  0.3746E-04  0  0.1988E-04  0  0.1491E-04  0 -0.1571E-04  0  0.6561E-05
   (  1, 23,  9)  (  1,  9,  4)  (  1,  5,  9)  (  1, 15,  3)  (  1, 27, 10)
  1 -0.1565E-04  0  0.1204E-04  0  0.1036E-04  0 -0.7247E-05  1 -0.8790E-05
   (  1,  9,  2)  (  1, 24,  8)  (  1, 23,  9)  (  1,  8, 13)  (  1,  9,  2)

 MAXIMUM RESIDUAL FOR EACH ITERATION (1 INDICATES THE FIRST INNER ITERATION):

    RESIDUAL       RESIDUAL       RESIDUAL       RESIDUAL       RESIDUAL    
   LAYER,ROW,COL  LAYER,ROW,COL  LAYER,ROW,COL  LAYER,ROW,COL  LAYER,ROW,COL
 ---------------------------------------------------------------------------
  1  -88.47      0  -79.69      0  -125.4      0  -26.54      0  -20.09    
   (  1,  9,  4)  (  1,  9, 12)  (  1,  8, 13)  (  1,  9, 12)  (  1,  6, 13)
  0   12.22      0   5.531      0  -4.010      0  -4.699      0  -2.623    
   (  1,  5, 15)  (  1,  5, 15)  (  1, 29,  6)  (  1,  9,  4)  (  1, 14, 13)
  0   1.494      0   1.004      0  0.6143      0  0.4287      0  0.2384    
   (  1,  1, 15)  (  1,  1, 15)  (  1,  1, 15)  (  1,  1, 15)  (  1,  1, 15)
  0  0.1741      0  0.1182      0  0.1029      0  0.6291E-01  0  0.3452E-01
   (  1,  9, 12)  (  1,  1, 15)  (  1,  1, 15)  (  1,  1, 15)  (  1,  1, 15)
  0  0.1915E-01  0  0.1014E-01  0  0.5248E-02  0  0.2960E-02  0  0.2536E-02
   (  1,  1, 15)  (  1,  1, 15)  (  1,  1, 15)  (  1,  1, 15)  (  1,  1, 15)
  1   15.78      0   9.054      0  -7.274      0  -8.265      0   3.958    
   (  1,  9,  4)  (  1,  7, 14)  (  1,  9, 12)  (  1,  8, 13)  (  1,  5, 15)
  0   2.597      0   1.453      0   1.018      0  0.6148      0  0.5480    
   (  1,  5, 15)  (  1,  5, 15)  (  1,  5, 15)  (  1,  5, 15)  (  1,  5, 15)
  0  0.3291      0  0.1866      0  0.1272      0  0.6542E-01  0  0.3740E-01
   (  1,  5, 15)  (  1,  5, 15)  (  1,  5, 15)  (  1,  1, 15)  (  1,  1, 15)
  0  0.2261E-01  0  0.1389E-01  0  0.1207E-01  0  0.9086E-02  0  0.5937E-02
   (  1,  1, 15)  (  1,  1, 15)  (  1,  1, 15)  (  1,  1, 15)  (  1,  1, 15)
  0  0.2850E-02  0  0.1532E-02  0  0.7126E-03  1  -4.072      0  -3.640    
   (  1,  1, 15)  (  1,  1, 15)  (  1,  1, 15)  (  1,  8,  5)  (  1,  8, 13)
  0  -5.481      0   1.634      0   1.124      0  0.6431      0  0.4334    
   (  1,  9, 12)  (  1, 13, 15)  (  1, 13, 15)  (  1,  5, 15)  (  1,  5, 15)
  0  0.2922      0  0.2153      0  0.1483      0 -0.9069E-01  0 -0.5337E-01
   (  1,  5, 15)  (  1,  9,  4)  (  1,  5, 15)  (  1, 14, 13)  (  1, 14, 13)
  0  0.2995E-01  0  0.1865E-01  0  0.9296E-02  0  0.5769E-02  0 -0.4234E-02
   (  1,  5, 15)  (  1,  5, 15)  (  1,  5, 15)  (  1,  9, 12)  (  1,  8, 12)
  0  0.5790E-02  0 -0.1817E-02  0 -0.1239E-02  0  0.5469E-03  1  -1.144    
   (  1,  8, 13)  (  1,  8, 12)  (  1,  8, 12)  (  1,  7, 12)  (  1,  8,  5)
  0  -1.119      0  -1.568      0  0.4972      0  0.3660      0  0.1667    
   (  1,  8, 13)  (  1,  9, 12)  (  1, 13, 15)  (  1, 13, 15)  (  1,  5, 15)
  0  0.1116      0  0.7596E-01  0  0.4151E-01  0  0.3701E-01  0 -0.2568E-01
   (  1,  5, 15)  (  1,  5, 15)  (  1,  5, 15)  (  1,  5, 15)  (  1, 14, 13)
  0  0.1420E-01  0  0.7953E-02  0  0.5270E-02  0  0.2751E-02  0  0.1420E-02
   (  1,  5, 15)  (  1,  5, 15)  (  1,  5, 15)  (  1,  5, 15)  (  1,  5, 15)
  0  0.1364E-02  0  0.1107E-02  1 -0.3861      0 -0.2366      0 -0.3603    
   (  1,  9, 12)  (  1,  8,  5)  (  1,  8, 13)  (  1,  9, 12)  (  1,  9, 12)
  0  0.1460      0  0.1086      0  0.4822E-01  0  0.3100E-01  0  0.2106E-01
   (  1, 13, 15)  (  1, 13, 15)  (  1, 28, 15)  (  1,  5, 15)  (  1,  5, 15)
  0  0.1136E-01  0 -0.6973E-02  0 -0.5830E-02  0  0.3800E-02  0  0.2304E-02
   (  1,  5, 15)  (  1, 14, 13)  (  1, 14, 13)  (  1,  5, 15)  (  1,  5, 15)
  0  0.1470E-02  0  0.8191E-03  1 -0.8791E-01  0  0.7922E-01  0 -0.9258E-01
   (  1,  5, 15)  (  1,  5, 15)  (  1,  9,  4)  (  1, 24,  8)  (  1,  9, 12)
  0  0.4225E-01  0  0.3183E-01  0  0.1487E-01  0  0.9025E-02  0  0.6032E-02
   (  1, 13, 15)  (  1, 13, 15)  (  1, 28, 15)  (  1,  5, 15)  (  1,  5, 15)
  0 -0.4084E-02  0  0.3271E-02  0  0.1976E-02  0  0.1363E-02  1 -0.2346E-01
   (  1,  8,  5)  (  1,  5, 15)  (  1,  5, 15)  (  1,  5, 15)  (  1,  9,  4)
  0  0.1996E-01  0  0.2502E-01  0  0.1219E-01  0  0.9435E-02  0  0.4982E-02
   (  1, 24,  8)  (  1,  8, 13)  (  1, 13, 15)  (  1, 13, 15)  (  1, 13, 15)
  0  0.2590E-02  0  0.1682E-02  0  0.9723E-03  1 -0.6657E-02  0  0.6172E-02
   (  1,  5, 15)  (  1,  5, 15)  (  1,  5, 15)  (  1,  9,  4)  (  1,  7,  6)
  0  0.6582E-02  0  0.3718E-02  0  0.2843E-02  0  0.1541E-02  0  0.7231E-03
   (  1,  8, 13)  (  1, 13, 15)  (  1, 13, 15)  (  1, 13, 15)  (  1,  5, 15)
  1  0.2303E-02  0  0.2183E-02  0  0.2100E-02  0  0.1265E-02  1  0.1446E-02
   (  1, 33, 15)  (  1,  7,  6)  (  1,  8, 13)  (  1, 28, 15)  (  1, 33, 15)



 OUTPUT CONTROL FOR STRESS PERIOD    3   TIME STEP    1
    SAVE HEAD FOR ALL LAYERS
    SAVE BUDGET
 UBDSV2 SAVING "   CONSTANT HEAD" ON UNIT  53 AT TIME STEP  1, STRESS PERIOD   3
 UBDSV1 SAVING "FLOW RIGHT FACE " ON UNIT  53 AT TIME STEP  1, STRESS PERIOD   3
 UBDSV1 SAVING "FLOW FRONT FACE " ON UNIT  53 AT TIME STEP  1, STRESS PERIOD   3

 HEAD WILL BE SAVED ON UNIT   51 AT END OF TIME STEP    1, STRESS PERIOD    3
1
  VOLUMETRIC BUDGET FOR ENTIRE MODEL AT END OF TIME STEP    1, STRESS PERIOD   3
  ------------------------------------------------------------------------------

     CUMULATIVE VOLUMES      L**3       RATES FOR THIS TIME STEP      L**3/T
     ------------------                 ------------------------

           IN:                                      IN:
           ---                                      ---
             STORAGE =     1542892.7500               STORAGE =           0.0000
       CONSTANT HEAD =           0.0000         CONSTANT HEAD =           0.0000
               WELLS =     1003996.9375                 WELLS =         549.5023
       RIVER LEAKAGE =      724228.3750         RIVER LEAKAGE =         407.7342
            RECHARGE =     6304995.0000              RECHARGE =        3449.7988

            TOTAL IN =     9576113.0000              TOTAL IN =        4407.0352

          OUT:                                     OUT:
          ----                                     ----
             STORAGE =           0.0000               STORAGE =           0.0000
       CONSTANT HEAD =      662382.3125         CONSTANT HEAD =         265.2258
               WELLS =           0.0000                 WELLS =           0.0000
       RIVER LEAKAGE =     8913846.0000         RIVER LEAKAGE =        4141.8472
            RECHARGE =           0.0000              RECHARGE =           0.0000

           TOTAL OUT =     9576228.0000             TOTAL OUT =        4407.0728

            IN - OUT =        -115.0000              IN - OUT =      -3.7598E-02

 PERCENT DISCREPANCY =          -0.00     PERCENT DISCREPANCY =          -0.00






         TIME SUMMARY AT END OF TIME STEP    1 IN STRESS PERIOD    3
                    SECONDS     MINUTES      HOURS       DAYS        YEARS
                    -----------------------------------------------------------
   TIME STEP LENGTH  86400.      1440.0      24.000      1.0000     2.73785E-03
 STRESS PERIOD TIME  86400.      1440.0      24.000      1.0000     2.73785E-03
         TOTAL TIME 1.57853E+08 2.63088E+06  43848.      1827.0      5.0021    
1

 Run end date and time (yyyy/mm/dd hh:mm:ss): 2016/06/13 10:55:38
 Elapsed run time:  0.019 Seconds

