                                  MODFLOW-NWT-SWR1 
      U.S. GEOLOGICAL SURVEY MODULAR FINITE-DIFFERENCE GROUNDWATER-FLOW MODEL
                            VERSION 1.0.9 07/01/2014
                    BASED ON MODFLOW-2005 VERSION 1.11.00 08/30/2013

 LIST FILE: freyberg.list
                         UNIT    2

 OPENING freyberg.dis
 FILE TYPE:DIS   UNIT   11   STATUS:OLD    
 FORMAT:FORMATTED              ACCESS:SEQUENTIAL          

 OPENING freyberg.truth.lpf
 FILE TYPE:LPF   UNIT   31   STATUS:OLD    
 FORMAT:FORMATTED              ACCESS:SEQUENTIAL          

 OPENING freyberg.pcg
 FILE TYPE:PCG   UNIT   32   STATUS:OLD    
 FORMAT:FORMATTED              ACCESS:SEQUENTIAL          

 OPENING freyberg.bas
 FILE TYPE:BAS6   UNIT   13   STATUS:OLD    
 FORMAT:FORMATTED              ACCESS:SEQUENTIAL          

 OPENING freyberg.truth.rch
 FILE TYPE:RCH   UNIT   19   STATUS:OLD    
 FORMAT:FORMATTED              ACCESS:SEQUENTIAL          

 OPENING freyberg.truth.wel
 FILE TYPE:WEL   UNIT   20   STATUS:OLD    
 FORMAT:FORMATTED              ACCESS:SEQUENTIAL          

 OPENING freyberg.truth.riv
 FILE TYPE:RIV   UNIT   18   STATUS:OLD    
 FORMAT:FORMATTED              ACCESS:SEQUENTIAL          

 OPENING freyberg.oc
 FILE TYPE:OC   UNIT   14   STATUS:OLD    
 FORMAT:FORMATTED              ACCESS:SEQUENTIAL          

 OPENING freyberg.hds
 FILE TYPE:DATA   UNIT   51   STATUS:REPLACE
 FORMAT:FORMATTED              ACCESS:SEQUENTIAL          

 OPENING freyberg.ddn
 FILE TYPE:DATA(BINARY)   UNIT   52   STATUS:REPLACE
 FORMAT:UNFORMATTED            ACCESS:STREAM              

 OPENING freyberg.cbc
 FILE TYPE:DATA(BINARY)   UNIT   53   STATUS:REPLACE
 FORMAT:UNFORMATTED            ACCESS:STREAM              

 BAS -- BASIC PACKAGE, VERSION 7, 5/2/2005 INPUT READ FROM UNIT   13

 MODFLOW was compiled using mixed precision
 Precision of REAL variables:           6
 Precision of DOUBLE PRECISION variables:          15

 DISCRETIZATION INPUT DATA READ FROM UNIT   11
 # Discretization file for MODFLOW, generated by Flopy.
    1 LAYERS        40 ROWS        20 COLUMNS
    3 STRESS PERIOD(S) IN SIMULATION
 MODEL TIME UNIT IS DAYS
 MODEL LENGTH UNIT IS METERS
  Confining bed flag for each layer:
   0



                               DELR
 READING ON UNIT   11 WITH FORMAT: (20G15.6)           



                               DELC
 READING ON UNIT   11 WITH FORMAT: (40G15.6)           

 TOP ELEVATION OF LAYER 1 =   35.0000    

 OPENING FILE ON UNIT   99:
 botm.ref                                                                                                                                                                                                



             MODEL LAYER BOTTOM EL. FOR LAYER   1
 READING ON UNIT   99 WITH FORMAT: (10E12.4)           


 STRESS PERIOD     LENGTH       TIME STEPS     MULTIPLIER FOR DELT    SS FLAG
 ----------------------------------------------------------------------------
        1         1.000000          1                    1.000         SS
        2         1825.000          1                    1.000         TR
        3         1.000000          1                    1.000         SS

 COMBINED STEADY-STATE AND TRANSIENT SIMULATION




 # Basic package file for MODFLOW, generated by Flopy.                           
 THE FREE FORMAT OPTION HAS BEEN SELECTED

 OPENING FILE ON UNIT   99:
 ibound.ref                                                                                                                                                                                              



                     BOUNDARY ARRAY FOR LAYER   1
 READING ON UNIT   99 WITH FORMAT: (25I3)              

 AQUIFER HEAD WILL BE SET TO  -999.99     AT ALL NO-FLOW NODES (IBOUND=0).

 OPENING FILE ON UNIT   99:
 strt.ref                                                                                                                                                                                                



                       INITIAL HEAD FOR LAYER   1
 READING ON UNIT   99 WITH FORMAT: (10E12.4)           
 # Output control package file for MODFLOW, generated by Flopy.

 OUTPUT CONTROL IS SPECIFIED ONLY AT TIME STEPS FOR WHICH OUTPUT IS DESIRED
 HEADS WILL BE SAVED WITH FORMAT: (20E15.6)           
 COMPACT CELL-BY-CELL BUDGET FILES WILL BE WRITTEN
 AUXILIARY DATA WILL BE SAVED IN CELL-BY-CELL BUDGET FILES
 HEAD PRINT FORMAT CODE IS   0    DRAWDOWN PRINT FORMAT CODE IS   0
 HEADS WILL BE SAVED ON UNIT   51    DRAWDOWNS WILL BE SAVED ON UNIT   52

 LPF -- LAYER-PROPERTY FLOW PACKAGE, VERSION 7, 5/2/2005
         INPUT READ FROM UNIT   31
 # MODFLOW2000 Layer Property Flow (LPF) Package
 CELL-BY-CELL FLOWS WILL BE SAVED ON UNIT   53
 HEAD AT CELLS THAT CONVERT TO DRY= -1.00000E+30
 No named parameters

   LAYER FLAGS:
 LAYER       LAYTYP        LAYAVG         CHANI        LAYVKA        LAYWET
 ---------------------------------------------------------------------------
    1             1             0     1.000E+00             0             0

   INTERPRETATION OF LAYER FLAGS:
                        INTERBLOCK     HORIZONTAL    DATA IN
         LAYER TYPE   TRANSMISSIVITY   ANISOTROPY   ARRAY VKA   WETTABILITY
 LAYER      (LAYTYP)      (LAYAVG)       (CHANI)      (LAYVKA)      (LAYWET)
 ---------------------------------------------------------------------------
    1   CONVERTIBLE      HARMONIC     1.000E+00    VERTICAL K  NON-WETTABLE

 WETTING CAPABILITY IS NOT ACTIVE IN ANY LAYER

 OPENING FILE ON UNIT   99:
 hk.truth.ref                                                                                                                                                                                            



              HYD. COND. ALONG ROWS FOR LAYER   1
 READING ON UNIT   99 WITH FORMAT: (FREE)              

      VERTICAL HYD. COND. =   1.00000     FOR LAYER   1

         SPECIFIC STORAGE =  1.000000E-04 FOR LAYER   1

           SPECIFIC YIELD =  0.250000     FOR LAYER   1

 WEL -- WELL PACKAGE, VERSION 1.0.6, 12/05/2012 INPUT READ FROM UNIT   20
 # Well file for MODFLOW, generated by Flopy.
 No named parameters
 MAXIMUM OF      6 ACTIVE WELLS AT ONE TIME
 No named parameters


     0 Well parameters

 RIV -- RIVER PACKAGE, VERSION 7, 5/2/2005 INPUT READ FROM UNIT   18
 # RIV for MODFLOW, generated by Flopy.
 No named parameters
 MAXIMUM OF     40 ACTIVE RIVER REACHES AT ONE TIME


     0 River parameters

 RCH -- RECHARGE PACKAGE, VERSION 7, 5/2/2005 INPUT READ FROM UNIT   19
 # RCH for MODFLOW, generated by Flopy.
 No named parameters
 OPTION 3 -- RECHARGE TO HIGHEST ACTIVE NODE IN EACH VERTICAL COLUMN


     0 Recharge parameters

 PCG -- CONJUGATE-GRADIENT SOLUTION PACKAGE, VERSION 7, 5/2/2005
 MAXIMUM OF    100 CALLS OF SOLUTION ROUTINE
 MAXIMUM OF     25 INTERNAL ITERATIONS PER CALL TO SOLUTION ROUTINE
 MATRIX PRECONDITIONING TYPE :    1
 IHCOFADD option -- When an active cell is surrounded by dry cells, convert
 the cell to dry only if storage and head-dependent boundary flow are 0.



                                    SOLUTION BY THE CONJUGATE-GRADIENT METHOD
                                   -------------------------------------------
                    MAXIMUM NUMBER OF CALLS TO PCG ROUTINE =      100
                        MAXIMUM ITERATIONS PER CALL TO PCG =       25
                               MATRIX PRECONDITIONING TYPE =        1
        RELAXATION FACTOR (ONLY USED WITH PRECOND. TYPE 1) =    0.10000E+01
 PARAMETER OF POLYNOMIAL PRECOND. = 2 (2) OR IS CALCULATED :        2
                         HEAD CHANGE CRITERION FOR CLOSURE =    0.10000E-04
                     RESIDUAL CHANGE CRITERION FOR CLOSURE =    0.10000E+00
            PCG HEAD AND RESIDUAL CHANGE PRINTOUT INTERVAL =        5
     PRINTING FROM SOLVER IS LIMITED(1) OR SUPPRESSED (>1) =        0
                            STEADY-STATE DAMPING PARAMETER =    0.70000E+00
                               TRANSIENT DAMPING PARAMETER =    0.70000E+00
1
                            STRESS PERIOD NO.    1, LENGTH =   1.000000    
                            -----------------------------------------------

                              NUMBER OF TIME STEPS =     1

                               MULTIPLIER FOR DELT =     1.000

                            INITIAL TIME STEP SIZE =   1.000000    

 WELL NO.  LAYER   ROW   COL   STRESS RATE         
 --------------------------------------------------
      1      1      9     16      -708.5    
      2      1     11     13      -354.2    
      3      1     20     14      -337.0    
      4      1     26     10      -71.71    
      5      1     29      6      -62.21    
      6      1     34     12      -371.5    

      6 WELLS

 REACH NO.  LAYER   ROW   COL     STAGE      CONDUCTANCE     BOTTOM EL.         
 -------------------------------------------------------------------------------
      1      1      1     15       20.10           4511.           20.00    
      2      1      2     15       19.87           4511.           19.75    
      3      1      3     15       19.65           4511.           19.50    
      4      1      4     15       19.42           4511.           19.25    
      5      1      5     15       19.19           4511.           19.00    
      6      1      6     15       18.97           4511.           18.75    
      7      1      7     15       18.74           4511.           18.50    
      8      1      8     15       18.51           4511.           18.25    
      9      1      9     15       18.28           4511.           18.00    
     10      1     10     15       19.06           4511.           17.75    
     11      1     11     15       17.83           4511.           17.50    
     12      1     12     15       17.60           4511.           17.25    
     13      1     13     15       17.38           4511.           17.00    
     14      1     14     15       17.15           4511.           16.75    
     15      1     15     15       16.92           4511.           16.50    
     16      1     16     15       16.70           4511.           16.25    
     17      1     17     15       16.47           4511.           16.00    
     18      1     18     15       16.24           4511.           15.75    
     19      1     19     15       16.02           4511.           15.50    
     20      1     20     15       15.79           4511.           15.25    
     21      1     21     15       15.56           4511.           15.00    
     22      1     22     15       15.33           4511.           14.75    
     23      1     23     15       15.11           4511.           14.50    
     24      1     24     15       14.88           4511.           14.25    
     25      1     25     15       14.65           4511.           14.00    
     26      1     26     15       14.43           4511.           13.75    
     27      1     27     15       14.20           4511.           13.50    
     28      1     28     15       13.97           4511.           13.25    
     29      1     29     15       13.75           4511.           13.00    
     30      1     30     15       13.52           4511.           12.75    
     31      1     31     15       13.29           4511.           12.50    
     32      1     32     15       13.07           4511.           12.25    
     33      1     33     15       12.84           4511.           12.00    
     34      1     34     15       12.61           4511.           11.75    
     35      1     35     15       12.38           4511.           11.50    
     36      1     36     15       12.16           4511.           11.25    
     37      1     37     15       11.93           4511.           11.00    
     38      1     38     15       11.70           4511.           10.75    
     39      1     39     15       11.48           4511.           10.50    
     40      1     40     15       11.25           4511.           10.25    

     40 RIVER REACHES

                 RECHARGE =  1.382400E-04

 SOLVING FOR HEAD 


    18 CALLS TO PCG ROUTINE FOR TIME STEP   1 IN STRESS PERIOD    1
   229 TOTAL ITERATIONS

 MAXIMUM HEAD CHANGE FOR EACH ITERATION (1 INDICATES THE FIRST INNER ITERATION):

    HEAD CHANGE    HEAD CHANGE    HEAD CHANGE    HEAD CHANGE    HEAD CHANGE 
   LAYER,ROW,COL  LAYER,ROW,COL  LAYER,ROW,COL  LAYER,ROW,COL  LAYER,ROW,COL
 ---------------------------------------------------------------------------
  1  -64.72      0  -27.42      0   18.08      0   10.98      0   4.644    
   (  1, 39,  9)  (  1,  9,  4)  (  1,  9,  4)  (  1, 39,  9)  (  1, 35, 10)
  0  -2.571      0  -1.303      0 -0.4241      0 -0.2403      0 -0.1012    
   (  1, 30,  7)  (  1, 19,  2)  (  1, 37,  5)  (  1,  8,  5)  (  1, 30,  7)
  0 -0.6324E-01  0 -0.4115E-01  0  0.4399E-01  0  0.1514E-01  0 -0.5873E-02
   (  1,  8,  5)  (  1,  9,  4)  (  1,  9,  4)  (  1, 37, 11)  (  1, 38, 12)
  0  0.2435E-02  0 -0.8893E-03  0 -0.4390E-03  0  0.2918E-03  0 -0.2066E-03
   (  1, 37, 10)  (  1, 35,  8)  (  1,  1,  2)  (  1, 13,  3)  (  1,  9,  4)
  0  0.1330E-03  0 -0.7741E-04  0  0.3791E-04  0  0.1306E-04  0  0.6639E-05
   (  1, 30,  6)  (  1, 35, 10)  (  1, 36, 10)  (  1, 16,  3)  (  1, 29,  7)
  1  -16.28      0  -12.33      0   4.560      0   3.125      0   1.477    
   (  1, 39,  9)  (  1,  9,  4)  (  1, 32,  1)  (  1, 39,  9)  (  1, 39, 12)
  0 -0.8021      0 -0.3241      0 -0.1393      0 -0.1090      0 -0.3878E-01
   (  1, 30,  6)  (  1, 19,  2)  (  1, 30,  7)  (  1,  8,  5)  (  1, 26,  8)
  0 -0.1884E-01  0 -0.1235E-01  0  0.1001E-01  0  0.5130E-02  0 -0.1875E-02
   (  1, 33,  2)  (  1,  9,  4)  (  1,  9,  4)  (  1, 36, 11)  (  1, 38, 12)
  0  0.7029E-03  0 -0.2440E-03  0 -0.1207E-03  0 -0.6294E-04  0  0.3099E-04
   (  1, 37, 10)  (  1, 35,  8)  (  1, 34, 10)  (  1, 32, 12)  (  1, 23,  5)
  0 -0.3455E-04  0  0.2575E-04  0 -0.1237E-04  0  0.1138E-04  0 -0.2787E-05
   (  1,  9,  2)  (  1, 30,  6)  (  1, 30,  7)  (  1, 29,  7)  (  1, 39, 14)
  1   11.33      0  -8.651      0  -2.787      0 -0.6673      0 -0.5780    
   (  1,  9,  4)  (  1,  9,  4)  (  1,  8,  5)  (  1, 10,  1)  (  1, 29,  7)
  0  0.2328      0 -0.1888      0 -0.7187E-01  0 -0.4266E-01  0 -0.1718E-01
   (  1, 39, 12)  (  1, 30,  4)  (  1, 23,  5)  (  1, 13,  4)  (  1, 27,  8)
  0  0.7424E-02  0  0.4711E-02  0 -0.3755E-02  0  0.1764E-02  0  0.5475E-03
   (  1, 38, 10)  (  1,  9,  4)  (  1, 31,  3)  (  1, 36, 11)  (  1, 35, 12)
  0 -0.3147E-03  0 -0.1148E-03  0 -0.5611E-04  0 -0.3016E-04  0  0.1246E-04
   (  1, 25, 10)  (  1, 36,  7)  (  1, 36, 13)  (  1, 38, 10)  (  1, 30,  5)
  0 -0.1163E-04  0  0.6723E-05  1   3.128      0  -2.142      0  -1.030    
   (  1, 35, 10)  (  1,  9,  4)  (  1,  9,  4)  (  1,  9,  4)  (  1,  8,  5)
  0  0.2821      0 -0.2981      0 -0.9214E-01  0 -0.8859E-01  0 -0.2464E-01
   (  1, 34, 12)  (  1, 30,  7)  (  1,  8,  5)  (  1, 31,  5)  (  1, 25,  5)
  0 -0.1695E-01  0 -0.7305E-02  0 -0.3314E-02  0 -0.1917E-02  0  0.1652E-02
   (  1,  9,  4)  (  1, 30,  6)  (  1,  5,  6)  (  1,  9,  4)  (  1,  9,  3)
  0  0.5671E-03  0  0.2111E-03  0 -0.1447E-03  0 -0.5295E-04  0 -0.2949E-04
   (  1, 36, 11)  (  1, 27, 11)  (  1, 25, 10)  (  1, 34,  5)  (  1, 33,  8)
  0  0.1130E-04  0 -0.5774E-05  1 -0.6754      0 -0.2851      0 -0.3248    
   (  1, 35, 11)  (  1, 32,  6)  (  1, 34, 12)  (  1,  8,  5)  (  1,  9,  4)
  0  0.1258      0 -0.1086      0 -0.3871E-01  0 -0.3081E-01  0  0.9022E-02
   (  1, 34, 12)  (  1, 30,  7)  (  1,  8,  5)  (  1, 31,  5)  (  1, 38, 13)
  0 -0.7717E-02  0 -0.2719E-02  0 -0.1497E-02  0  0.8505E-03  0 -0.5626E-03
   (  1,  9,  4)  (  1, 33,  2)  (  1, 24,  9)  (  1,  9,  3)  (  1,  9,  4)
  0  0.2500E-03  0 -0.7338E-04  0  0.4773E-04  0 -0.2010E-04  0 -0.1236E-04
   (  1, 34, 12)  (  1,  4,  5)  (  1,  6,  7)  (  1, 36,  5)  (  1, 33,  8)
  0  0.5322E-05  1 -0.3337      0  0.2065      0 -0.1212      0  0.4290E-01
   (  1, 35, 11)  (  1, 34, 12)  (  1,  9,  4)  (  1, 35, 10)  (  1, 34, 12)
  0 -0.2801E-01  0 -0.1285E-01  0 -0.7093E-02  0  0.4042E-02  0 -0.1465E-02
   (  1, 30,  6)  (  1, 33, 11)  (  1, 29,  7)  (  1, 31,  9)  (  1, 32,  1)
  0 -0.1021E-02  0  0.4238E-03  0 -0.2476E-03  0 -0.2566E-03  0  0.1102E-03
   (  1,  8,  4)  (  1,  7,  4)  (  1, 34,  7)  (  1,  9,  4)  (  1, 34, 12)
  0  0.3437E-04  0  0.1676E-04  0 -0.9937E-05  1 -0.1491      0  0.7895E-01
   (  1, 38,  9)  (  1, 36, 10)  (  1, 33,  9)  (  1, 34, 12)  (  1,  9,  4)
  0 -0.3553E-01  0 -0.1909E-01  0  0.1158E-01  0 -0.5637E-02  0 -0.2957E-02
   (  1, 35, 10)  (  1, 29,  7)  (  1, 34, 12)  (  1, 33, 11)  (  1, 32,  7)
  0  0.1316E-02  0  0.6408E-03  0 -0.4233E-03  0 -0.1933E-03  0 -0.1183E-03
   (  1, 30,  7)  (  1, 34, 12)  (  1, 36, 10)  (  1, 25, 11)  (  1,  9,  4)
  0  0.8571E-04  0  0.4554E-04  0  0.1309E-04  0  0.5093E-05  1 -0.6429E-01
   (  1,  9,  4)  (  1, 35, 11)  (  1, 38,  9)  (  1, 35, 11)  (  1, 34, 12)
  0  0.2367E-01  0 -0.1097E-01  0 -0.6843E-02  0  0.5299E-02  0 -0.1860E-02
   (  1,  9,  4)  (  1, 35, 10)  (  1, 29,  7)  (  1, 34, 12)  (  1, 33, 11)
  0 -0.1190E-02  0  0.4847E-03  0  0.2874E-03  0 -0.1704E-03  0 -0.7067E-04
   (  1, 33, 11)  (  1, 30,  7)  (  1, 34, 12)  (  1, 36, 10)  (  1, 25, 11)
  0  0.4593E-04  0 -0.3592E-04  0  0.1868E-04  0  0.4437E-05  1 -0.2688E-01
   (  1,  9,  4)  (  1,  9,  4)  (  1, 35, 11)  (  1, 26, 10)  (  1, 34, 12)
  0  0.6697E-02  0  0.3225E-02  0 -0.2304E-02  0  0.2005E-02  0  0.7123E-03
   (  1,  9,  4)  (  1,  8,  5)  (  1, 35, 11)  (  1, 34, 12)  (  1, 35, 10)
  0 -0.6820E-03  0 -0.2050E-03  0  0.1091E-03  0 -0.6693E-04  0  0.3038E-04
   (  1, 33, 11)  (  1,  7,  3)  (  1, 34, 12)  (  1, 36, 10)  (  1, 33,  8)
  0 -0.1586E-04  0 -0.9648E-05  1 -0.1077E-01  0 -0.1718E-02  0  0.1511E-02
   (  1, 35,  8)  (  1,  9,  4)  (  1, 34, 12)  (  1, 35, 10)  (  1,  9,  4)
  0 -0.8930E-03  0  0.6612E-03  0  0.3179E-03  0 -0.3109E-03  0  0.7153E-04
   (  1,  9,  4)  (  1, 34, 12)  (  1, 30,  7)  (  1, 33, 11)  (  1, 32, 13)
  0  0.4064E-04  0 -0.2307E-04  0  0.1208E-04  0 -0.6565E-05  1 -0.4215E-02
   (  1,  8,  5)  (  1,  6,  3)  (  1, 33,  8)  (  1, 35,  8)  (  1, 34, 12)
  0 -0.5800E-03  0  0.5687E-03  0  0.3037E-03  0 -0.2227E-03  0  0.1387E-03
   (  1,  9,  4)  (  1,  9,  4)  (  1, 32,  6)  (  1, 30,  7)  (  1, 29,  7)
  0 -0.1233E-03  0  0.3085E-04  0 -0.1927E-04  0  0.1039E-04  0 -0.4961E-05
   (  1, 33, 11)  (  1, 32, 13)  (  1, 36, 10)  (  1,  7,  3)  (  1,  8,  5)
  1 -0.1669E-02  0 -0.2365E-03  0  0.1855E-03  0  0.1336E-03  0 -0.8589E-04
   (  1, 34, 12)  (  1,  9,  4)  (  1,  9,  4)  (  1, 33, 12)  (  1, 30,  7)
  0  0.5674E-04  0 -0.4707E-04  0  0.1415E-04  0 -0.8397E-05  1 -0.6808E-03
   (  1, 29,  7)  (  1, 33, 11)  (  1,  8,  5)  (  1,  9,  4)  (  1, 34, 12)
  0 -0.9323E-04  0  0.6411E-04  0  0.5758E-04  0 -0.3108E-04  0  0.2247E-04
   (  1,  9,  4)  (  1, 33, 12)  (  1, 33, 12)  (  1, 30,  7)  (  1, 29,  7)
  0 -0.1704E-04  0  0.6679E-05  1 -0.2860E-03  0 -0.4313E-04  0  0.2922E-04
   (  1, 33, 11)  (  1,  7,  3)  (  1, 34, 12)  (  1, 35, 10)  (  1,  9,  4)
  0 -0.1765E-04  0 -0.1224E-04  0  0.9472E-05  1 -0.1230E-03  0  0.1550E-04
   (  1,  9,  4)  (  1, 30,  7)  (  1, 29,  7)  (  1, 34, 12)  (  1, 29,  7)
  0  0.2064E-04  0 -0.7150E-05  1 -0.2793E-04  0 -0.2634E-04  0  0.1143E-04
   (  1, 33, 12)  (  1,  9,  4)  (  1, 34, 12)  (  1, 34, 12)  (  1, 33, 12)
  0 -0.5104E-05  1 -0.1230E-04  0 -0.7370E-05  1  0.3401E-05
   (  1, 29,  7)  (  1, 34, 12)  (  1, 34, 12)  (  1,  9,  4)

 MAXIMUM RESIDUAL FOR EACH ITERATION (1 INDICATES THE FIRST INNER ITERATION):

    RESIDUAL       RESIDUAL       RESIDUAL       RESIDUAL       RESIDUAL    
   LAYER,ROW,COL  LAYER,ROW,COL  LAYER,ROW,COL  LAYER,ROW,COL  LAYER,ROW,COL
 ---------------------------------------------------------------------------
  1  -4071.      0  -2906.      0  -2067.      0  -1196.      0  -545.6    
   (  1, 39,  9)  (  1, 39,  9)  (  1, 39,  7)  (  1, 39,  7)  (  1, 39,  7)
  0  -306.7      0   158.7      0  -78.43      0  -53.82      0  -32.84    
   (  1, 39,  7)  (  1, 38,  7)  (  1, 39, 15)  (  1, 39, 15)  (  1, 39, 15)
  0  -20.54      0  -16.84      0  -10.22      0  -5.160      0  -2.441    
   (  1, 39, 15)  (  1, 39, 15)  (  1, 39, 15)  (  1, 39, 15)  (  1, 39, 15)
  0  -1.191      0 -0.5544      0 -0.2241      0 -0.1247      0 -0.9181E-01
   (  1, 39, 15)  (  1, 39, 15)  (  1, 39, 15)  (  1, 39, 15)  (  1, 39, 15)
  0 -0.6521E-01  0 -0.3083E-01  0 -0.1092E-01  0 -0.4809E-02  0 -0.2892E-02
   (  1, 39, 15)  (  1, 39, 15)  (  1, 39, 15)  (  1, 39, 15)  (  1, 39, 15)
  1  -851.2      0  -721.2      0  -454.8      0  -256.5      0  -117.4    
   (  1, 39,  9)  (  1, 39,  9)  (  1, 39,  7)  (  1, 39,  7)  (  1, 39,  7)
  0   60.05      0   36.10      0  -19.02      0  -12.78      0  -8.009    
   (  1, 38,  7)  (  1, 38,  7)  (  1, 39, 15)  (  1, 39, 15)  (  1, 39, 15)
  0  -4.750      0  -3.972      0  -2.396      0  -1.234      0 -0.6011    
   (  1, 39, 15)  (  1, 39, 15)  (  1, 39, 15)  (  1, 39, 15)  (  1, 39, 15)
  0 -0.2948      0 -0.1459      0 -0.6334E-01  0 -0.3143E-01  0 -0.2278E-01
   (  1, 39, 15)  (  1, 39, 15)  (  1, 39, 15)  (  1, 39, 15)  (  1, 39, 15)
  0 -0.1768E-01  0 -0.8947E-02  0 -0.5130E-02  0 -0.2444E-02  0 -0.9815E-03
   (  1, 39, 15)  (  1, 39, 15)  (  1, 39, 15)  (  1, 39, 15)  (  1, 39, 15)
  1   567.5      0  -155.4      0  -105.5      0  -64.96      0  -25.67    
   (  1,  9,  4)  (  1, 39,  9)  (  1, 39,  7)  (  1, 39,  7)  (  1, 39,  7)
  0  -12.27      0   8.169      0  -4.209      0  -2.852      0  -1.751    
   (  1, 39,  7)  (  1, 38,  7)  (  1, 39, 15)  (  1, 39, 15)  (  1, 39, 15)
  0  -1.071      0 -0.9391      0 -0.5310      0 -0.3011      0 -0.1717    
   (  1, 39, 15)  (  1, 39, 15)  (  1, 39, 15)  (  1, 39, 15)  (  1, 39, 15)
  0 -0.8992E-01  0 -0.4652E-01  0 -0.2061E-01  0 -0.9983E-02  0 -0.7413E-02
   (  1, 39, 15)  (  1, 39, 15)  (  1, 39, 15)  (  1, 39, 15)  (  1, 39, 15)
  0 -0.3932E-02  0 -0.3150E-02  1   129.2      0   54.99      0  -30.61    
   (  1, 39, 15)  (  1, 39, 15)  (  1, 38, 15)  (  1, 38, 15)  (  1, 34, 12)
  0  -17.52      0  -7.370      0  -3.936      0  -2.749      0  -1.721    
   (  1, 39,  7)  (  1, 39,  7)  (  1,  9, 16)  (  1,  9, 16)  (  1,  9, 16)
  0  -1.006      0 -0.4812      0 -0.2998      0 -0.2543      0 -0.1580    
   (  1,  9, 16)  (  1, 39, 15)  (  1, 39, 15)  (  1, 39, 15)  (  1, 39, 15)
  0 -0.8820E-01  0 -0.5309E-01  0 -0.2914E-01  0 -0.1506E-01  0 -0.6933E-02
   (  1, 39, 15)  (  1, 39, 15)  (  1, 39, 15)  (  1, 39, 15)  (  1, 39, 15)
  0 -0.3873E-02  0 -0.2883E-02  1   35.23      0   19.57      0  -13.53    
   (  1, 39, 15)  (  1, 39, 15)  (  1, 38, 15)  (  1, 19, 15)  (  1, 34, 12)
  0  -7.272      0  -3.132      0  -1.859      0  -1.324      0 -0.8200    
   (  1, 34, 12)  (  1, 34, 12)  (  1,  9, 16)  (  1,  9, 16)  (  1,  9, 16)
  0 -0.5120      0 -0.2422      0 -0.1211      0 -0.8004E-01  0 -0.4783E-01
   (  1,  9, 16)  (  1,  9, 16)  (  1,  9, 16)  (  1,  9, 16)  (  1, 39, 15)
  0 -0.2625E-01  0 -0.1538E-01  0 -0.8680E-02  0 -0.4495E-02  0 -0.2203E-02
   (  1, 39, 15)  (  1, 39, 15)  (  1, 39, 15)  (  1, 39, 15)  (  1, 39, 15)
  0 -0.1590E-02  1   21.10      0   10.92      0  -5.450      0  -2.523    
   (  1, 39, 15)  (  1, 39, 15)  (  1, 38, 15)  (  1, 34, 12)  (  1, 34, 12)
  0  -1.373      0 -0.6991      0 -0.4822      0 -0.3133      0 -0.1940    
   (  1, 34, 12)  (  1,  9, 16)  (  1,  9, 16)  (  1,  9, 16)  (  1,  9, 16)
  0 -0.1015      0 -0.5579E-01  0 -0.3235E-01  0 -0.2243E-01  0 -0.8379E-02
   (  1,  9, 16)  (  1,  9, 16)  (  1,  9, 16)  (  1,  9, 16)  (  1,  9, 16)
  0 -0.4169E-02  0 -0.2262E-02  0 -0.1149E-02  1   9.762      0   5.173    
   (  1, 39, 15)  (  1, 39, 15)  (  1, 39, 15)  (  1, 39, 15)  (  1, 39, 15)
  0  -2.541      0  -1.475      0 -0.6076      0 -0.2921      0 -0.2142    
   (  1, 34, 12)  (  1, 34, 12)  (  1, 34, 12)  (  1, 34, 12)  (  1,  9, 16)
  0 -0.1464      0 -0.9476E-01  0 -0.4836E-01  0 -0.2369E-01  0 -0.1863E-01
   (  1,  9, 16)  (  1,  9, 16)  (  1,  9, 16)  (  1,  9, 16)  (  1,  9, 16)
  0 -0.9620E-02  0 -0.3558E-02  0 -0.1511E-02  0  0.6923E-03  1   3.664    
   (  1,  9, 16)  (  1,  9, 16)  (  1,  9, 16)  (  1, 31, 15)  (  1, 39, 15)
  0   2.314      0  -1.112      0 -0.6623      0 -0.2593      0 -0.1291    
   (  1, 39, 15)  (  1, 34, 12)  (  1, 34, 12)  (  1, 34, 12)  (  1, 34, 12)
  0 -0.8603E-01  0 -0.5798E-01  0 -0.3650E-01  0 -0.1862E-01  0 -0.8718E-02
   (  1,  9, 16)  (  1,  9, 16)  (  1,  9, 16)  (  1,  9, 16)  (  1,  9, 16)
  0 -0.5867E-02  0 -0.3704E-02  0 -0.1376E-02  0  0.6313E-03  1   1.386    
   (  1,  9, 16)  (  1,  9, 16)  (  1,  9, 16)  (  1, 31, 15)  (  1, 39, 15)
  0  0.8912      0  0.5059      0 -0.2655      0 -0.1052      0 -0.6004E-01
   (  1, 39, 15)  (  1, 39, 15)  (  1, 34, 12)  (  1, 34, 12)  (  1, 34, 12)
  0 -0.3473E-01  0 -0.2064E-01  0 -0.1306E-01  0 -0.6627E-02  0 -0.3036E-02
   (  1, 34, 12)  (  1,  9, 16)  (  1,  9, 16)  (  1,  9, 16)  (  1,  9, 16)
  0 -0.1554E-02  0 -0.1270E-02  1  0.5599      0  0.3259      0  0.2072    
   (  1,  9, 16)  (  1,  9, 16)  (  1, 39, 15)  (  1, 39, 15)  (  1, 39, 15)
  0  0.1157      0  0.4748E-01  0  0.2809E-01  0  0.1426E-01  0  0.7458E-02
   (  1, 38, 15)  (  1, 19, 15)  (  1, 19, 15)  (  1, 19, 15)  (  1, 32, 14)
  0  0.4663E-02  0 -0.2142E-02  0 -0.1021E-02  0  0.5874E-03  1  0.2200    
   (  1, 32, 14)  (  1,  9, 16)  (  1,  9, 16)  (  1, 37,  9)  (  1, 39, 15)
  0  0.1584      0  0.1060      0  0.5475E-01  0  0.2364E-01  0  0.1327E-01
   (  1, 39, 15)  (  1, 39, 15)  (  1, 38, 15)  (  1, 38, 15)  (  1, 19, 15)
  0  0.6636E-02  0  0.3405E-02  0  0.1968E-02  0  0.8058E-03  0 -0.4510E-03
   (  1, 19, 15)  (  1, 32, 14)  (  1, 32, 14)  (  1, 32, 14)  (  1, 31, 14)
  1  0.7914E-01  0  0.6077E-01  0  0.4281E-01  0  0.2369E-01  0  0.1122E-01
   (  1, 39, 15)  (  1, 39, 15)  (  1, 39, 15)  (  1, 39, 15)  (  1, 38, 15)
  0  0.6003E-02  0  0.3257E-02  0  0.1624E-02  0  0.1007E-02  1  0.2669E-01
   (  1, 19, 15)  (  1, 32, 15)  (  1, 32, 15)  (  1, 32, 14)  (  1, 39, 15)
  0  0.2082E-01  0  0.1559E-01  0  0.9298E-02  0  0.4760E-02  0  0.2464E-02
   (  1, 39, 15)  (  1, 39, 15)  (  1, 39, 15)  (  1, 38, 15)  (  1, 32, 15)
  0  0.1507E-02  0  0.7616E-03  1  0.8694E-02  0  0.6564E-02  0  0.4944E-02
   (  1, 32, 15)  (  1, 32, 15)  (  1, 39, 15)  (  1, 39, 15)  (  1, 39, 15)
  0  0.3357E-02  0  0.1702E-02  0  0.9700E-03  1  0.3326E-02  0  0.2709E-02
   (  1, 39, 15)  (  1, 39, 15)  (  1, 39, 15)  (  1, 34, 15)  (  1, 35, 11)
  0  0.1498E-02  0  0.1237E-02  1  0.3360E-02  0 -0.1494E-02  0  0.1010E-02
   (  1, 35, 11)  (  1, 35, 11)  (  1, 34, 12)  (  1, 34, 11)  (  1, 35, 11)
  0  0.7013E-03  1  0.1345E-02  0  0.7568E-03  1  0.1295E-02
   (  1, 35, 11)  (  1, 34, 12)  (  1, 34, 12)  (  1, 34, 12)



 OUTPUT CONTROL FOR STRESS PERIOD    1   TIME STEP    1
    SAVE HEAD FOR ALL LAYERS
    SAVE BUDGET
 UBDSV2 SAVING "   CONSTANT HEAD" ON UNIT  53 AT TIME STEP  1, STRESS PERIOD   1
 UBDSV1 SAVING "FLOW RIGHT FACE " ON UNIT  53 AT TIME STEP  1, STRESS PERIOD   1
 UBDSV1 SAVING "FLOW FRONT FACE " ON UNIT  53 AT TIME STEP  1, STRESS PERIOD   1

 HEAD WILL BE SAVED ON UNIT   51 AT END OF TIME STEP    1, STRESS PERIOD    1
1
  VOLUMETRIC BUDGET FOR ENTIRE MODEL AT END OF TIME STEP    1, STRESS PERIOD   1
  ------------------------------------------------------------------------------

     CUMULATIVE VOLUMES      L**3       RATES FOR THIS TIME STEP      L**3/T
     ------------------                 ------------------------

           IN:                                      IN:
           ---                                      ---
             STORAGE =           0.0000               STORAGE =           0.0000
       CONSTANT HEAD =           0.0000         CONSTANT HEAD =           0.0000
               WELLS =           0.0000                 WELLS =           0.0000
       RIVER LEAKAGE =         363.9372         RIVER LEAKAGE =         363.9372
            RECHARGE =        6004.7998              RECHARGE =        6004.7998

            TOTAL IN =        6368.7368              TOTAL IN =        6368.7368

          OUT:                                     OUT:
          ----                                     ----
             STORAGE =           0.0000               STORAGE =           0.0000
       CONSTANT HEAD =         409.0466         CONSTANT HEAD =         409.0466
               WELLS =        1905.1200                 WELLS =        1905.1200
       RIVER LEAKAGE =        4054.5999         RIVER LEAKAGE =        4054.5999
            RECHARGE =           0.0000              RECHARGE =           0.0000

           TOTAL OUT =        6368.7666             TOTAL OUT =        6368.7666

            IN - OUT =      -2.9785E-02              IN - OUT =      -2.9785E-02

 PERCENT DISCREPANCY =          -0.00     PERCENT DISCREPANCY =          -0.00






         TIME SUMMARY AT END OF TIME STEP    1 IN STRESS PERIOD    1
                    SECONDS     MINUTES      HOURS       DAYS        YEARS
                    -----------------------------------------------------------
   TIME STEP LENGTH  86400.      1440.0      24.000      1.0000     2.73785E-03
 STRESS PERIOD TIME  86400.      1440.0      24.000      1.0000     2.73785E-03
         TOTAL TIME  86400.      1440.0      24.000      1.0000     2.73785E-03
1
1
                            STRESS PERIOD NO.    2, LENGTH =   1825.000    
                            -----------------------------------------------

                              NUMBER OF TIME STEPS =     1

                               MULTIPLIER FOR DELT =     1.000

                            INITIAL TIME STEP SIZE =   1825.000    

 WELL NO.  LAYER   ROW   COL   STRESS RATE         
 --------------------------------------------------
      1      1      9     16      -885.6    
      2      1     11     13      -442.8    
      3      1     20     14      -421.2    
      4      1     26     10      -89.64    
      5      1     29      6      -77.76    
      6      1     34     12      -464.4    

      6 WELLS

 REUSING NON-PARAMETER RIVER REACHES FROM LAST STRESS PERIOD

     40 RIVER REACHES

                 RECHARGE =  9.000000E-05

 SOLVING FOR HEAD 


    22 CALLS TO PCG ROUTINE FOR TIME STEP   1 IN STRESS PERIOD    2
   102 TOTAL ITERATIONS

 MAXIMUM HEAD CHANGE FOR EACH ITERATION (1 INDICATES THE FIRST INNER ITERATION):

    HEAD CHANGE    HEAD CHANGE    HEAD CHANGE    HEAD CHANGE    HEAD CHANGE 
   LAYER,ROW,COL  LAYER,ROW,COL  LAYER,ROW,COL  LAYER,ROW,COL  LAYER,ROW,COL
 ---------------------------------------------------------------------------
  1  -1.192      0  0.7094E-01  0  0.2804E-01  0  0.5932E-02  0  0.1476E-02
   (  1, 34, 12)  (  1, 11, 13)  (  1, 34, 12)  (  1, 35, 10)  (  1, 36, 11)
  0  0.4746E-03  0 -0.1481E-03  0 -0.4985E-04  0 -0.9561E-05  1 -0.6240    
   (  1, 35, 11)  (  1,  9,  4)  (  1,  8,  5)  (  1,  9,  4)  (  1, 34, 12)
  0 -0.4379E-01  0  0.9157E-02  0  0.2531E-02  0 -0.6483E-03  0 -0.2243E-03
   (  1, 35, 11)  (  1, 34, 12)  (  1, 35, 10)  (  1,  9,  4)  (  1,  8,  5)
  0 -0.6262E-04  0  0.1404E-04  0  0.3364E-05  1 -0.3383      0 -0.2508E-01
   (  1,  9,  4)  (  1, 16, 10)  (  1, 35,  6)  (  1, 34, 12)  (  1, 35, 11)
  0 -0.4591E-02  0  0.1219E-02  0 -0.2997E-03  0 -0.9359E-04  0 -0.2245E-04
   (  1, 35, 11)  (  1, 35, 10)  (  1,  9,  4)  (  1,  8,  5)  (  1,  9,  4)
  0  0.6511E-05  1 -0.1898      0 -0.1470E-01  0 -0.2037E-02  0  0.6152E-03
   (  1, 31, 14)  (  1, 34, 12)  (  1, 35, 11)  (  1, 35, 11)  (  1, 35, 10)
  0 -0.1311E-03  0 -0.5529E-04  0 -0.8935E-05  1 -0.1082      0 -0.8755E-02
   (  1,  9,  4)  (  1, 36, 10)  (  1,  9,  4)  (  1, 34, 12)  (  1, 35, 11)
  0 -0.9525E-03  0  0.2766E-03  0 -0.8155E-04  0 -0.2683E-04  0 -0.4130E-05
   (  1, 33, 13)  (  1, 35, 10)  (  1, 36, 10)  (  1, 36, 10)  (  1,  9,  4)
  1 -0.6201E-01  0 -0.5168E-02  0  0.6220E-03  0  0.1078E-03  0 -0.4667E-04
   (  1, 34, 12)  (  1, 35, 11)  (  1, 35, 10)  (  1, 35, 10)  (  1, 36, 10)
  0 -0.1169E-04  0  0.2449E-05  1 -0.3560E-01  0 -0.3017E-02  0  0.3895E-03
   (  1, 36, 10)  (  1, 31, 14)  (  1, 34, 12)  (  1, 35, 11)  (  1, 35, 10)
  0 -0.4656E-04  0 -0.2328E-04  0 -0.5132E-05  1 -0.2046E-01  0 -0.1750E-02
   (  1, 36, 10)  (  1, 36, 10)  (  1, 36, 10)  (  1, 34, 12)  (  1, 35, 11)
  0  0.2310E-03  0 -0.3038E-04  0 -0.1111E-04  0  0.2478E-05  1 -0.1176E-01
   (  1, 35, 10)  (  1, 36, 10)  (  1, 36, 10)  (  1, 37,  5)  (  1, 34, 12)
  0 -0.1011E-02  0  0.1340E-03  0 -0.1859E-04  0 -0.5627E-05  1 -0.6760E-02
   (  1, 35, 11)  (  1, 35, 10)  (  1, 36, 10)  (  1, 36, 10)  (  1, 34, 12)
  0 -0.5828E-03  0  0.7724E-04  0 -0.1114E-04  0 -0.2972E-05  1 -0.3886E-02
   (  1, 35, 11)  (  1, 35, 10)  (  1, 36, 10)  (  1, 36, 10)  (  1, 34, 12)
  0 -0.3356E-03  0  0.4441E-04  0 -0.6500E-05  1 -0.2234E-02  0 -0.1931E-03
   (  1, 35, 11)  (  1, 35, 10)  (  1, 36, 10)  (  1, 34, 12)  (  1, 35, 11)
  0  0.2521E-04  0 -0.3434E-05  1 -0.1284E-02  0 -0.1110E-03  0  0.1403E-04
   (  1, 35, 10)  (  1, 36, 10)  (  1, 34, 12)  (  1, 35, 11)  (  1, 35, 10)
  0 -0.1690E-05  1 -0.7390E-03  0 -0.6384E-04  0  0.7714E-05  1 -0.4243E-03
   (  1, 36, 10)  (  1, 34, 12)  (  1, 35, 11)  (  1, 35, 10)  (  1, 34, 12)
  0 -0.3664E-04  0  0.3852E-05  1 -0.2444E-03  0 -0.2105E-04  0  0.1939E-05
   (  1, 35, 11)  (  1, 35, 10)  (  1, 34, 12)  (  1, 35, 11)  (  1, 35, 10)
  1 -0.1405E-03  0 -0.1217E-04  0  0.1172E-05  1 -0.8061E-04  0 -0.7001E-05
   (  1, 34, 12)  (  1, 35, 11)  (  1, 35, 10)  (  1, 34, 12)  (  1, 35, 11)
  1 -0.4634E-04  0 -0.3627E-05  1 -0.2644E-04  0 -0.1430E-05  1 -0.1476E-04
   (  1, 34, 12)  (  1, 35, 11)  (  1, 34, 12)  (  1, 35, 11)  (  1, 34, 12)
  0 -0.8513E-06  1 -0.8825E-05
   (  1,  8,  5)  (  1, 34, 12)

 MAXIMUM RESIDUAL FOR EACH ITERATION (1 INDICATES THE FIRST INNER ITERATION):

    RESIDUAL       RESIDUAL       RESIDUAL       RESIDUAL       RESIDUAL    
   LAYER,ROW,COL  LAYER,ROW,COL  LAYER,ROW,COL  LAYER,ROW,COL  LAYER,ROW,COL
 ---------------------------------------------------------------------------
  1   12.86      0   3.968      0   1.034      0  0.3192      0  0.9700E-01
   (  1, 19, 15)  (  1, 19, 15)  (  1, 19, 15)  (  1,  9, 15)  (  1,  9, 15)
  0  0.3067E-01  0  0.1201E-01  0  0.3807E-02  0  0.1191E-02  1   6.341    
   (  1, 19, 15)  (  1, 19, 15)  (  1, 19, 15)  (  1, 19, 15)  (  1,  9, 16)
  0   1.352      0  0.4032      0  0.1232      0  0.4226E-01  0  0.1407E-01
   (  1, 19, 15)  (  1,  8, 17)  (  1, 19, 15)  (  1, 19, 15)  (  1, 19, 15)
  0  0.4972E-02  0  0.1488E-02  0  0.4761E-03  1   3.012      0  0.7290    
   (  1, 19, 15)  (  1, 31, 15)  (  1, 31, 15)  (  1, 35, 11)  (  1, 35, 11)
  0 -0.1973      0  0.5671E-01  0  0.2266E-01  0  0.5733E-02  0  0.2333E-02
   (  1, 35, 10)  (  1, 32, 14)  (  1, 32, 14)  (  1, 19, 15)  (  1, 31, 15)
  0  0.8654E-03  1   1.795      0  0.3678      0 -0.1030      0  0.3475E-01
   (  1, 31, 15)  (  1, 35, 11)  (  1, 35, 11)  (  1, 35, 10)  (  1, 32, 14)
  0  0.1268E-01  0 -0.2617E-02  0  0.1233E-02  1   1.064      0  0.1789    
   (  1, 32, 14)  (  1, 31, 14)  (  1, 31, 15)  (  1, 35, 11)  (  1, 35, 11)
  0 -0.4876E-01  0  0.1987E-01  0  0.6299E-02  0 -0.1465E-02  0  0.6338E-03
   (  1, 32, 13)  (  1, 32, 14)  (  1, 32, 14)  (  1, 31, 14)  (  1, 31, 15)
  1  0.6252      0 -0.9904E-01  0 -0.2394E-01  0  0.1070E-01  0  0.2964E-02
   (  1, 35, 11)  (  1, 35, 10)  (  1, 32, 13)  (  1, 32, 14)  (  1, 32, 14)
  0 -0.7763E-03  0  0.3263E-03  1  0.3645      0 -0.5747E-01  0  0.1288E-01
   (  1, 31, 14)  (  1, 31, 15)  (  1, 35, 11)  (  1, 35, 10)  (  1, 32, 14)
  0  0.5415E-02  0  0.1403E-02  0  0.3969E-03  1  0.2115      0 -0.3307E-01
   (  1, 32, 14)  (  1, 32, 14)  (  1, 37,  9)  (  1, 35, 11)  (  1, 35, 10)
  0  0.7438E-02  0  0.2726E-02  0  0.7016E-03  0  0.2162E-03  1  0.1222    
   (  1, 32, 14)  (  1, 32, 14)  (  1, 32, 14)  (  1, 37,  9)  (  1, 35, 11)
  0 -0.1899E-01  0  0.4291E-02  0  0.1427E-02  0  0.3525E-03  1  0.7053E-01
   (  1, 35, 10)  (  1, 32, 14)  (  1, 32, 14)  (  1, 32, 14)  (  1, 35, 11)
  0 -0.1090E-01  0  0.2475E-02  0  0.7564E-03  0 -0.1740E-03  1  0.4063E-01
   (  1, 35, 10)  (  1, 32, 14)  (  1, 32, 14)  (  1, 31, 14)  (  1, 35, 11)
  0 -0.6261E-02  0  0.1425E-02  0  0.4179E-03  1  0.2340E-01  0 -0.3594E-02
   (  1, 35, 10)  (  1, 32, 14)  (  1, 32, 14)  (  1, 35, 11)  (  1, 35, 10)
  0  0.8274E-03  0  0.2948E-03  1  0.1347E-01  0 -0.2058E-02  0  0.4825E-03
   (  1, 32, 14)  (  1, 32, 14)  (  1, 35, 11)  (  1, 35, 10)  (  1, 32, 14)
  0  0.2119E-03  1  0.7761E-02  0 -0.1178E-02  0  0.2822E-03  1  0.4480E-02
   (  1, 32, 14)  (  1, 35, 11)  (  1, 35, 10)  (  1, 32, 14)  (  1, 35, 11)
  0 -0.6741E-03  0 -0.1964E-03  1  0.2593E-02  0 -0.3911E-03  0 -0.1376E-03
   (  1, 35, 10)  (  1, 32, 13)  (  1, 35, 11)  (  1, 35, 10)  (  1, 35, 10)
  1  0.1497E-02  0 -0.2287E-03  0 -0.7660E-04  1  0.8597E-03  0 -0.1321E-03
   (  1, 35, 11)  (  1, 35, 10)  (  1, 32, 13)  (  1, 35, 11)  (  1, 35, 10)
  1  0.5041E-03  0  0.1276E-03  1  0.2931E-03  0  0.1421E-03  1  0.1657E-03
   (  1, 35, 11)  (  1, 35, 11)  (  1, 35, 11)  (  1, 35, 11)  (  1, 35, 11)
  0  0.9187E-04  1  0.9929E-04
   (  1, 35, 11)  (  1, 35, 11)



 OUTPUT CONTROL FOR STRESS PERIOD    2   TIME STEP    1
    SAVE HEAD FOR ALL LAYERS
    SAVE BUDGET
 UBDSV1 SAVING "         STORAGE" ON UNIT  53 AT TIME STEP  1, STRESS PERIOD   2
 UBDSV2 SAVING "   CONSTANT HEAD" ON UNIT  53 AT TIME STEP  1, STRESS PERIOD   2
 UBDSV1 SAVING "FLOW RIGHT FACE " ON UNIT  53 AT TIME STEP  1, STRESS PERIOD   2
 UBDSV1 SAVING "FLOW FRONT FACE " ON UNIT  53 AT TIME STEP  1, STRESS PERIOD   2

 HEAD WILL BE SAVED ON UNIT   51 AT END OF TIME STEP    1, STRESS PERIOD    2
1
  VOLUMETRIC BUDGET FOR ENTIRE MODEL AT END OF TIME STEP    1, STRESS PERIOD   2
  ------------------------------------------------------------------------------

     CUMULATIVE VOLUMES      L**3       RATES FOR THIS TIME STEP      L**3/T
     ------------------                 ------------------------

           IN:                                      IN:
           ---                                      ---
             STORAGE =     2765483.0000               STORAGE =        1515.3331
       CONSTANT HEAD =           0.0000         CONSTANT HEAD =           0.0000
               WELLS =           0.0000                 WELLS =           0.0000
       RIVER LEAKAGE =      961478.8750         RIVER LEAKAGE =         526.6383
            RECHARGE =     7140614.5000              RECHARGE =        3909.3750

            TOTAL IN =    10867576.0000              TOTAL IN =        5951.3467

          OUT:                                     OUT:
          ----                                     ----
             STORAGE =           0.0000               STORAGE =           0.0000
       CONSTANT HEAD =      653700.8125         CONSTANT HEAD =         357.9681
               WELLS =     4347960.0000                 WELLS =        2381.3999
       RIVER LEAKAGE =     5865915.0000         RIVER LEAKAGE =        3211.9783
            RECHARGE =           0.0000              RECHARGE =           0.0000

           TOTAL OUT =    10867576.0000             TOTAL OUT =        5951.3462

            IN - OUT =           0.0000              IN - OUT =       4.8828E-04

 PERCENT DISCREPANCY =           0.00     PERCENT DISCREPANCY =           0.00






         TIME SUMMARY AT END OF TIME STEP    1 IN STRESS PERIOD    2
                    SECONDS     MINUTES      HOURS       DAYS        YEARS
                    -----------------------------------------------------------
   TIME STEP LENGTH 1.57680E+08 2.62800E+06  43800.      1825.0      4.9966    
 STRESS PERIOD TIME 1.57680E+08 2.62800E+06  43800.      1825.0      4.9966    
         TOTAL TIME 1.57766E+08 2.62944E+06  43824.      1826.0      4.9993    
1
1
                            STRESS PERIOD NO.    3, LENGTH =   1.000000    
                            -----------------------------------------------

                              NUMBER OF TIME STEPS =     1

                               MULTIPLIER FOR DELT =     1.000

                            INITIAL TIME STEP SIZE =   1.000000    

 WELL NO.  LAYER   ROW   COL   STRESS RATE         
 --------------------------------------------------
      1      1      9     16      -885.6    
      2      1     11     13      -442.8    
      3      1     20     14      -421.2    
      4      1     26     10      -89.64    
      5      1     29      6      -77.76    
      6      1     34     12      -464.4    

      6 WELLS

 REUSING NON-PARAMETER RIVER REACHES FROM LAST STRESS PERIOD

     40 RIVER REACHES

                 RECHARGE =  9.000000E-05

 SOLVING FOR HEAD 

 CELL CONVERSIONS FOR ITER.=  6  LAYER=  1  STEP=  1  PERIOD=   3   (ROW,COL)
    DRY( 34, 12)   


    16 CALLS TO PCG ROUTINE FOR TIME STEP   1 IN STRESS PERIOD    3
   219 TOTAL ITERATIONS

 MAXIMUM HEAD CHANGE FOR EACH ITERATION (1 INDICATES THE FIRST INNER ITERATION):

    HEAD CHANGE    HEAD CHANGE    HEAD CHANGE    HEAD CHANGE    HEAD CHANGE 
   LAYER,ROW,COL  LAYER,ROW,COL  LAYER,ROW,COL  LAYER,ROW,COL  LAYER,ROW,COL
 ---------------------------------------------------------------------------
  1  -1.458      0  -1.259      0 -0.7912      0 -0.3796      0 -0.2603    
   (  1,  9,  4)  (  1,  8,  5)  (  1, 32,  1)  (  1, 30,  7)  (  1,  8,  5)
  0 -0.1233      0 -0.8891E-01  0 -0.4645E-01  0 -0.1897E-01  0 -0.1279E-01
   (  1, 32,  6)  (  1,  2,  5)  (  1,  4,  1)  (  1, 38, 13)  (  1,  4,  1)
  0 -0.6934E-02  0  0.5725E-02  0 -0.2592E-02  0  0.1223E-02  0  0.5180E-03
   (  1,  8,  1)  (  1,  9,  4)  (  1, 34, 11)  (  1, 33,  2)  (  1, 25, 10)
  0 -0.1946E-03  0  0.9001E-04  0  0.4348E-04  0 -0.2000E-04  0  0.2239E-04
   (  1, 33, 11)  (  1, 34, 10)  (  1, 33, 12)  (  1,  9,  4)  (  1, 11,  2)
  0 -0.9015E-05  1 -0.7224      0 -0.2742      0  0.8780E-01  0 -0.7202E-01
   (  1, 33,  8)  (  1, 34, 12)  (  1, 34, 12)  (  1,  9,  4)  (  1,  9,  4)
  0  0.3477E-01  0 -0.2948E-01  0 -0.1637E-01  0  0.1056E-01  0 -0.5051E-02
   (  1, 28,  1)  (  1, 32,  6)  (  1,  6,  3)  (  1,  8,  4)  (  1,  6,  1)
  0  0.2812E-02  0  0.1059E-02  0  0.5152E-03  0 -0.4285E-03  0 -0.1919E-03
   (  1, 35, 10)  (  1, 22,  8)  (  1,  9,  4)  (  1,  9,  3)  (  1,  6,  3)
  0  0.8081E-04  0 -0.3462E-04  0  0.1774E-04  0  0.8709E-05  1 -0.8062    
   (  1, 25,  3)  (  1, 38, 11)  (  1, 34, 10)  (  1, 27, 10)  (  1, 34, 12)
  0 -0.1904      0  0.7229E-01  0 -0.6145E-01  0  0.3859E-01  0 -0.2623E-01
   (  1, 34, 12)  (  1, 32,  9)  (  1, 29,  7)  (  1, 33, 11)  (  1, 35, 11)
  0 -0.1317E-01  0 -0.7383E-02  0  0.2850E-02  0  0.1594E-02  0 -0.9103E-03
   (  1, 33, 13)  (  1, 32,  1)  (  1, 35,  7)  (  1, 36, 11)  (  1, 36, 10)
  0  0.5382E-03  0  0.1891E-03  0  0.1463E-03  0 -0.6698E-04  0 -0.2493E-04
   (  1,  9,  4)  (  1, 25, 11)  (  1, 37, 10)  (  1, 28,  8)  (  1, 35,  5)
  0 -0.1201E-04  0  0.5525E-05  1  -1.261      0 -0.9924E-01  0  0.6890E-01
   (  1,  5,  6)  (  1, 13,  3)  (  1, 34, 12)  (  1, 34, 12)  (  1,  9,  4)
  0  0.4551E-01  0  0.2924E-01  0  0.2515E-01  0 -0.1841E-01  0  0.6908E-02
   (  1, 33, 12)  (  1,  7,  3)  (  1, 29,  7)  (  1, 35, 11)  (  1,  8,  5)
  0 -0.2978E-02  0 -0.1903E-02  0 -0.1163E-02  0 -0.3502E-03  0  0.2161E-03
   (  1,  7,  3)  (  1, 32, 14)  (  1, 36, 10)  (  1, 27, 10)  (  1,  9,  4)
  0 -0.1993E-03  0 -0.7018E-04  0 -0.3250E-04  0 -0.1207E-04  0  0.7756E-05
   (  1,  9,  4)  (  1, 24, 10)  (  1, 36,  7)  (  1, 22, 11)  (  1, 34, 11)
  1  -2.781      0 -0.1595      0 -0.1432      0  0.1013      0 -0.5454E-01
   (  1, 34, 12)  (  1, 35, 10)  (  1,  9,  4)  (  1, 33, 12)  (  1, 30,  7)
  0  0.4867E-01  0 -0.3266E-01  0  0.1195E-01  0 -0.6789E-02  0 -0.3370E-02
   (  1, 29,  7)  (  1, 33, 11)  (  1,  8,  5)  (  1,  7,  3)  (  1, 32, 14)
  0 -0.1886E-02  0  0.6787E-03  0  0.3938E-03  0 -0.2865E-03  0 -0.1261E-03
   (  1, 36, 10)  (  1, 34, 11)  (  1,  9,  4)  (  1,  9,  4)  (  1, 37,  9)
  0 -0.7102E-04  0 -0.2182E-04  0 -0.1287E-04  0  0.8472E-05  1   1.757    
   (  1, 26, 10)  (  1, 21, 11)  (  1, 30,  6)  (  1, 30,  6)  (  1, 34, 11)
  0  0.7931      0  0.5102      0  0.3608      0 -0.1836      0  0.1249    
   (  1, 33, 12)  (  1, 33, 12)  (  1, 35, 12)  (  1, 29,  1)  (  1, 35, 10)
  0 -0.7445E-01  0  0.2372E-01  0 -0.1879E-01  0  0.7226E-02  0 -0.4393E-02
   (  1, 29, 11)  (  1,  5,  1)  (  1,  8,  4)  (  1,  6,  2)  (  1, 34, 10)
  0  0.2446E-02  0 -0.1479E-02  0  0.6800E-03  0 -0.4843E-03  0 -0.1627E-03
   (  1,  9,  4)  (  1,  9,  4)  (  1, 32,  1)  (  1, 38, 11)  (  1, 39, 14)
  0 -0.5806E-04  0  0.3038E-04  0 -0.1555E-04  0  0.9159E-05  1  0.5442    
   (  1, 39, 14)  (  1, 38, 11)  (  1, 31,  7)  (  1, 30,  7)  (  1, 34, 11)
  0  0.1991      0  0.1148      0  0.9774E-01  0 -0.5595E-01  0  0.3352E-01
   (  1, 33, 12)  (  1,  9,  4)  (  1, 35, 12)  (  1, 29,  1)  (  1, 34, 11)
  0 -0.1861E-01  0  0.7095E-02  0  0.3695E-02  0 -0.2074E-02  0  0.1161E-02
   (  1, 29, 11)  (  1, 27, 10)  (  1,  6,  2)  (  1, 36, 10)  (  1,  7,  3)
  0  0.5922E-03  0 -0.3350E-03  0  0.2585E-03  0 -0.1540E-03  0 -0.5051E-04
   (  1, 26, 11)  (  1,  9,  4)  (  1,  9,  4)  (  1, 37, 11)  (  1, 39, 14)
  0  0.2163E-04  0 -0.1285E-04  0  0.7549E-05  1  0.1512      0 -0.5321E-01
   (  1, 30,  6)  (  1, 32,  7)  (  1, 38, 11)  (  1, 33, 12)  (  1,  9,  4)
  0  0.3183E-01  0  0.2772E-01  0 -0.1490E-01  0 -0.9623E-02  0  0.5040E-02
   (  1,  9,  4)  (  1, 35, 12)  (  1, 28,  1)  (  1, 32,  1)  (  1, 33, 12)
  0 -0.2133E-02  0  0.1470E-02  0 -0.8197E-03  0  0.3105E-03  0  0.1494E-03
   (  1,  8,  5)  (  1,  6,  2)  (  1, 36, 10)  (  1, 39, 13)  (  1, 26, 11)
  0  0.1053E-03  0  0.5183E-04  0 -0.3733E-04  0  0.1361E-04  0 -0.5595E-05
   (  1,  9,  4)  (  1, 33,  2)  (  1, 37, 11)  (  1, 34, 11)  (  1, 39, 14)
  1  0.4404E-01  0 -0.1686E-01  0  0.8706E-02  0  0.7340E-02  0 -0.4695E-02
   (  1, 33, 12)  (  1,  9,  4)  (  1, 35, 12)  (  1, 35, 12)  (  1, 31,  1)
  0  0.1787E-02  0  0.1490E-02  0 -0.5731E-03  0  0.4486E-03  0 -0.2074E-03
   (  1, 35, 10)  (  1, 33, 12)  (  1,  8,  5)  (  1,  7,  3)  (  1, 36, 10)
  0  0.9963E-04  0 -0.3614E-04  0  0.3690E-04  0  0.1626E-04  0 -0.8558E-05
   (  1, 39, 13)  (  1,  9,  4)  (  1,  9,  4)  (  1, 35, 10)  (  1, 37, 11)
  1  0.1227E-01  0 -0.5076E-02  0  0.2822E-02  0 -0.2242E-02  0 -0.9125E-03
   (  1, 33, 12)  (  1,  9,  4)  (  1, 35, 12)  (  1, 32,  9)  (  1, 32,  1)
  0 -0.9819E-03  0  0.4232E-03  0 -0.1611E-03  0  0.1243E-03  0 -0.4406E-04
   (  1, 33,  8)  (  1, 33, 12)  (  1, 39, 12)  (  1,  7,  3)  (  1, 37, 12)
  0  0.2385E-04  0  0.1364E-04  0 -0.1204E-04  0  0.5568E-05  1  0.3455E-02
   (  1, 39, 14)  (  1,  9,  4)  (  1,  9,  4)  (  1, 33,  2)  (  1, 33, 12)
  0 -0.1476E-02  0  0.8398E-03  0 -0.7044E-03  0  0.3002E-03  0 -0.3657E-03
   (  1,  9,  4)  (  1, 35, 12)  (  1, 32,  9)  (  1, 30,  7)  (  1, 33,  8)
  0  0.1010E-03  0 -0.5127E-04  0  0.3674E-04  0  0.1068E-04  0  0.1020E-04
   (  1, 33, 12)  (  1, 38, 12)  (  1,  7,  3)  (  1, 28,  3)  (  1,  9,  4)
  0 -0.5301E-05  1  0.9914E-03  0 -0.4203E-03  0  0.2351E-03  0 -0.2044E-03
   (  1,  9,  4)  (  1, 33, 12)  (  1,  9,  4)  (  1, 35, 12)  (  1, 32,  9)
  0  0.1023E-03  0 -0.1123E-03  0  0.3116E-04  0 -0.1622E-04  0  0.1075E-04
   (  1, 30,  7)  (  1, 33,  8)  (  1, 35, 10)  (  1,  8,  5)  (  1,  7,  3)
  0  0.3990E-05  1  0.2894E-03  0 -0.1126E-03  0  0.7617E-04  0 -0.5612E-04
   (  1, 29, 11)  (  1, 33, 12)  (  1,  9,  4)  (  1,  9,  4)  (  1, 32,  9)
  0  0.3257E-04  0 -0.3476E-04  0  0.1037E-04  0 -0.5281E-05  1  0.8413E-04
   (  1, 30,  7)  (  1, 33, 10)  (  1, 34, 11)  (  1,  6,  2)  (  1, 33, 12)
  0  0.2818E-04  0  0.2380E-04  0 -0.1516E-04  0  0.1050E-04  0 -0.1130E-04
   (  1, 34, 13)  (  1,  9,  4)  (  1, 32, 11)  (  1, 30,  7)  (  1, 33, 10)
  0  0.3368E-05  1  0.2311E-04  0  0.9862E-05  1 -0.4093E-05
   (  1, 34, 11)  (  1, 33, 12)  (  1, 35, 12)  (  1, 31,  6)

 MAXIMUM RESIDUAL FOR EACH ITERATION (1 INDICATES THE FIRST INNER ITERATION):

    RESIDUAL       RESIDUAL       RESIDUAL       RESIDUAL       RESIDUAL    
   LAYER,ROW,COL  LAYER,ROW,COL  LAYER,ROW,COL  LAYER,ROW,COL  LAYER,ROW,COL
 ---------------------------------------------------------------------------
  1   70.86      0   17.99      0   17.70      0   14.72      0   11.87    
   (  1,  8,  5)  (  1, 37,  6)  (  1, 39,  6)  (  1,  1, 10)  (  1,  1, 13)
  0   9.873      0   7.370      0   4.967      0   2.548      0   1.327    
   (  1,  2, 15)  (  1,  1, 15)  (  1,  1, 15)  (  1,  1, 15)  (  1,  1, 15)
  0  0.7905      0  0.4819      0  0.1950      0  0.9213E-01  0  0.4982E-01
   (  1,  1, 15)  (  1,  1, 15)  (  1,  1, 15)  (  1,  1, 15)  (  1,  1, 15)
  0  0.2553E-01  0  0.1178E-01  0  0.5157E-02  0  0.3604E-02  0  0.2492E-02
   (  1,  1, 15)  (  1,  1, 15)  (  1,  1, 15)  (  1,  1, 15)  (  1,  1, 15)
  0  0.1959E-02  1   23.88      0   11.74      0   8.741      0   5.559    
   (  1,  1, 15)  (  1, 34, 12)  (  1, 34, 12)  (  1, 34, 12)  (  1, 35, 11)
  0   4.049      0   2.494      0   1.216      0  0.7232      0  0.3736    
   (  1, 35, 11)  (  1, 35, 11)  (  1,  1, 15)  (  1,  1, 15)  (  1,  1, 15)
  0  0.1937      0  0.8289E-01  0  0.4990E-01  0  0.4417E-01  0  0.2461E-01
   (  1, 32, 14)  (  1, 19, 15)  (  1, 31, 15)  (  1, 31, 15)  (  1, 31, 15)
  0  0.1318E-01  0  0.6871E-02  0  0.3586E-02  0  0.1944E-02  1   19.93    
   (  1, 31, 15)  (  1, 31, 15)  (  1, 31, 15)  (  1, 31, 15)  (  1, 34, 12)
  0   11.37      0   9.097      0   6.584      0   4.274      0   2.190    
   (  1, 34, 12)  (  1, 35, 11)  (  1, 35, 11)  (  1, 35, 11)  (  1, 35, 11)
  0   1.088      0  0.6266      0  0.3963      0  0.1580      0  0.6050E-01
   (  1, 35, 11)  (  1, 32, 14)  (  1, 32, 14)  (  1, 32, 14)  (  1, 32, 14)
  0 -0.5384E-01  0  0.3029E-01  0  0.1769E-01  0  0.1099E-01  0  0.6284E-02
   (  1, 31, 14)  (  1, 31, 15)  (  1, 31, 15)  (  1, 31, 15)  (  1, 31, 15)
  0  0.3420E-02  0  0.1790E-02  1  -14.34      0   12.37      0   10.74    
   (  1, 31, 15)  (  1, 31, 15)  (  1, 33, 12)  (  1, 35, 11)  (  1, 35, 11)
  0   7.785      0   4.424      0   2.291      0  -1.237      0  0.7855    
   (  1, 35, 11)  (  1, 35, 11)  (  1, 35, 11)  (  1, 32, 13)  (  1, 32, 14)
  0  0.5427      0  0.2202      0 -0.7877E-01  0  0.4356E-01  0  0.3070E-01
   (  1, 32, 14)  (  1, 32, 14)  (  1, 31, 14)  (  1, 37,  9)  (  1, 37,  9)
  0  0.2086E-01  0  0.1225E-01  0  0.6935E-02  0  0.3676E-02  0  0.2058E-02
   (  1, 31, 15)  (  1, 31, 15)  (  1, 31, 15)  (  1, 31, 15)  (  1, 31, 15)
  1  -24.27      0   21.62      0   18.52      0   13.31      0   7.364    
   (  1, 33, 12)  (  1, 35, 11)  (  1, 35, 11)  (  1, 35, 11)  (  1, 35, 11)
  0   3.957      0  -2.118      0   1.400      0  0.9480      0  0.3720    
   (  1, 35, 11)  (  1, 32, 13)  (  1, 32, 14)  (  1, 32, 14)  (  1, 32, 14)
  0 -0.1427      0  0.6659E-01  0  0.5097E-01  0  0.3529E-01  0  0.1981E-01
   (  1, 31, 14)  (  1, 37,  9)  (  1, 37,  9)  (  1, 37,  9)  (  1, 31, 15)
  0  0.1164E-01  0  0.6165E-02  0  0.3756E-02  0  0.2564E-02  1  -60.51    
   (  1, 31, 15)  (  1, 31, 15)  (  1, 31, 15)  (  1, 31, 15)  (  1, 34, 11)
  0  -40.03      0  -27.77      0  -16.11      0  -11.11      0  -6.943    
   (  1, 35, 12)  (  1, 35, 12)  (  1, 34, 11)  (  1, 33, 15)  (  1, 33, 15)
  0  -3.759      0  -2.391      0  -1.434      0 -0.8073      0 -0.3639    
   (  1, 31, 15)  (  1, 31, 15)  (  1, 31, 15)  (  1, 31, 15)  (  1, 31, 15)
  0 -0.2753      0 -0.1601      0 -0.9122E-01  0 -0.4785E-01  0 -0.2448E-01
   (  1, 31, 15)  (  1, 30, 15)  (  1, 32, 15)  (  1, 32, 15)  (  1, 30, 15)
  0 -0.1332E-01  0 -0.6636E-02  0 -0.5061E-02  0 -0.2856E-02  1  -19.13    
   (  1, 30, 15)  (  1, 30, 15)  (  1, 30, 15)  (  1, 30, 15)  (  1, 34, 11)
  0  -12.28      0  -9.538      0  -4.993      0  -3.874      0  -2.306    
   (  1, 34, 11)  (  1, 34, 11)  (  1, 34, 11)  (  1, 33, 15)  (  1, 33, 15)
  0  -1.194      0 -0.6915      0 -0.4084      0 -0.2364      0 -0.1173    
   (  1, 31, 15)  (  1, 31, 15)  (  1, 31, 15)  (  1, 31, 15)  (  1, 31, 15)
  0 -0.5849E-01  0 -0.4479E-01  0 -0.2893E-01  0 -0.1513E-01  0 -0.7484E-02
   (  1, 32, 15)  (  1, 32, 15)  (  1, 32, 15)  (  1, 32, 15)  (  1, 32, 15)
  0 -0.4212E-02  0 -0.3336E-02  0 -0.1674E-02  1  -5.816      0  -3.904    
   (  1, 30, 15)  (  1, 30, 15)  (  1, 30, 15)  (  1, 34, 11)  (  1, 34, 11)
  0  -2.911      0  -1.582      0  -1.274      0 -0.7464      0 -0.3998    
   (  1, 34, 11)  (  1, 33, 15)  (  1, 33, 15)  (  1, 33, 15)  (  1, 33, 15)
  0 -0.2185      0 -0.1376      0 -0.7444E-01  0 -0.3621E-01  0 -0.1960E-01
   (  1, 31, 15)  (  1, 31, 15)  (  1, 31, 15)  (  1, 31, 15)  (  1, 32, 15)
  0 -0.1712E-01  0 -0.8747E-02  0 -0.4451E-02  0 -0.2243E-02  0 -0.1178E-02
   (  1, 32, 15)  (  1, 32, 15)  (  1, 32, 15)  (  1, 32, 15)  (  1, 32, 15)
  1  -1.842      0  -1.269      0 -0.8671      0 -0.5179      0 -0.3345    
   (  1, 34, 11)  (  1, 34, 11)  (  1, 34, 11)  (  1, 33, 15)  (  1, 33, 15)
  0 -0.2306      0 -0.1320      0 -0.6320E-01  0 -0.4136E-01  0 -0.2156E-01
   (  1, 33, 15)  (  1, 33, 15)  (  1, 31, 15)  (  1, 31, 15)  (  1, 31, 15)
  0 -0.9395E-02  0 -0.6499E-02  0 -0.5096E-02  0 -0.2671E-02  0 -0.1305E-02
   (  1, 32, 15)  (  1, 32, 15)  (  1, 32, 15)  (  1, 32, 15)  (  1, 32, 15)
  1 -0.5869      0 -0.4051      0 -0.2603      0 -0.1703      0 -0.1184    
   (  1, 34, 11)  (  1, 34, 11)  (  1, 34, 11)  (  1, 33, 15)  (  1, 33, 15)
  0 -0.7586E-01  0 -0.4315E-01  0 -0.2034E-01  0 -0.1208E-01  0 -0.6455E-02
   (  1, 33, 15)  (  1, 33, 15)  (  1, 33, 15)  (  1, 31, 15)  (  1, 31, 15)
  0 -0.2891E-02  0 -0.2433E-02  0 -0.1557E-02  0 -0.8163E-03  1 -0.1826    
   (  1, 32, 15)  (  1, 32, 15)  (  1, 32, 15)  (  1, 32, 15)  (  1, 34, 11)
  0 -0.1263      0 -0.7906E-01  0 -0.5573E-01  0 -0.4376E-01  0 -0.2449E-01
   (  1, 34, 11)  (  1, 34, 11)  (  1, 33, 15)  (  1, 33, 15)  (  1, 33, 15)
  0 -0.1421E-01  0 -0.6938E-02  0 -0.3874E-02  0 -0.1976E-02  0 -0.1021E-02
   (  1, 33, 15)  (  1, 33, 15)  (  1, 33, 15)  (  1, 32, 15)  (  1, 32, 15)
  0 -0.8490E-03  1 -0.5570E-01  0 -0.3861E-01  0 -0.2412E-01  0 -0.1810E-01
   (  1, 32, 15)  (  1, 34, 11)  (  1, 34, 11)  (  1, 34, 11)  (  1, 33, 15)
  0 -0.1444E-01  0 -0.7925E-02  0 -0.4723E-02  0 -0.2328E-02  0 -0.1239E-02
   (  1, 33, 15)  (  1, 33, 15)  (  1, 33, 15)  (  1, 33, 15)  (  1, 33, 15)
  0 -0.6223E-03  1 -0.1672E-01  0 -0.1140E-01  0 -0.7436E-02  0 -0.5906E-02
   (  1, 32, 15)  (  1, 34, 11)  (  1, 34, 11)  (  1, 33, 15)  (  1, 33, 15)
  0 -0.4670E-02  0 -0.2619E-02  0 -0.1548E-02  0 -0.7583E-03  1 -0.5108E-02
   (  1, 33, 15)  (  1, 33, 15)  (  1, 33, 15)  (  1, 33, 15)  (  1, 34, 11)
  0 -0.3315E-02  0 -0.2552E-02  0 -0.2001E-02  0 -0.1526E-02  0 -0.8674E-03
   (  1, 34, 11)  (  1, 33, 15)  (  1, 33, 15)  (  1, 33, 15)  (  1, 33, 15)
  0 -0.4918E-03  1 -0.1584E-02  0 -0.9871E-03  1 -0.1088E-02
   (  1, 33, 15)  (  1, 34, 11)  (  1, 33, 15)  (  1, 34, 11)



 OUTPUT CONTROL FOR STRESS PERIOD    3   TIME STEP    1
    SAVE HEAD FOR ALL LAYERS
    SAVE BUDGET
 UBDSV2 SAVING "   CONSTANT HEAD" ON UNIT  53 AT TIME STEP  1, STRESS PERIOD   3
 UBDSV1 SAVING "FLOW RIGHT FACE " ON UNIT  53 AT TIME STEP  1, STRESS PERIOD   3
 UBDSV1 SAVING "FLOW FRONT FACE " ON UNIT  53 AT TIME STEP  1, STRESS PERIOD   3

 HEAD WILL BE SAVED ON UNIT   51 AT END OF TIME STEP    1, STRESS PERIOD    3
1
  VOLUMETRIC BUDGET FOR ENTIRE MODEL AT END OF TIME STEP    1, STRESS PERIOD   3
  ------------------------------------------------------------------------------

     CUMULATIVE VOLUMES      L**3       RATES FOR THIS TIME STEP      L**3/T
     ------------------                 ------------------------

           IN:                                      IN:
           ---                                      ---
             STORAGE =     2765483.0000               STORAGE =           0.0000
       CONSTANT HEAD =           0.0000         CONSTANT HEAD =           0.0000
               WELLS =           0.0000                 WELLS =           0.0000
       RIVER LEAKAGE =      962162.5000         RIVER LEAKAGE =         683.6514
            RECHARGE =     7144518.0000              RECHARGE =        3903.7500

            TOTAL IN =    10872164.0000              TOTAL IN =        4587.4014

          OUT:                                     OUT:
          ----                                     ----
             STORAGE =           0.0000               STORAGE =           0.0000
       CONSTANT HEAD =      653981.6250         CONSTANT HEAD =         280.8217
               WELLS =     4349877.0000                 WELLS =        1917.0000
       RIVER LEAKAGE =     5868304.5000         RIVER LEAKAGE =        2389.5732
            RECHARGE =           0.0000              RECHARGE =           0.0000

           TOTAL OUT =    10872163.0000             TOTAL OUT =        4587.3950

            IN - OUT =           1.0000              IN - OUT =       6.3477E-03

 PERCENT DISCREPANCY =           0.00     PERCENT DISCREPANCY =           0.00






         TIME SUMMARY AT END OF TIME STEP    1 IN STRESS PERIOD    3
                    SECONDS     MINUTES      HOURS       DAYS        YEARS
                    -----------------------------------------------------------
   TIME STEP LENGTH  86400.      1440.0      24.000      1.0000     2.73785E-03
 STRESS PERIOD TIME  86400.      1440.0      24.000      1.0000     2.73785E-03
         TOTAL TIME 1.57853E+08 2.63088E+06  43848.      1827.0      5.0021    
1

 Run end date and time (yyyy/mm/dd hh:mm:ss): 2016/05/18 21:16:00
 Elapsed run time:  0.021 Seconds

